[TITLE]

[JUNCTIONS]
;ID	Elev	Demand	Pattern
10	934.634	0	1	;
1013	945.137	0.149176954	1	;
11	934.766	0	1	;
12	920.134	0	1	;
13	920.099	0	1	;
14	919.052	0.047839507	1	;
15	917.737	0.042566872	1	;
16	913.747	0.119984569	1	;
17	912.925	0.019804526	1	;
18	913.015	0	1	;
183	905.791	0.029192387	1	;
184	904.046	0.011316872	1	;
185	904.211	0.022505144	1	;
186	905.427	0.019675926	1	;
187	878.472	0.05002572	1	;
188	880.751	0.063271604	1	;
189	910.7	0	1	;
19	911.791	0.066358025	1	;
190	910.627	0	1	;
191	886.809	0.02957819	1	;
192	900.078	0.023533951	1	;
193	894.374	0.016460906	1	;
194	898.837	0.001929012	1	;
195	878.714	0.009387861	1	;
196	869.781	0.016975309	1	;
197	868.596	0.047710905	1	;
198	862.476	0.030221194	1	;
199	867.068	0.017618313	1	;
20	908.66	0.088605968	1	;
200	907.185	0.003215021	1	;
201	894.187	0.064943417	1	;
202	892.591	0.02507716	1	;
203	872.135	0.041923869	1	;
204	857.176	0.040123457	1	;
205	856	0.008101852	1	;
206	857.836	0.012602881	1	;
207	857.069	0	1	;
208	883.494	0.030349794	1	;
209	865.745	0.093235596	1	;
2098	882	0	1	;
2099	903.174	0.127186213	1	;
21	911.055	0.028420783	1	;
210	866.991	0.007587449	1	;
2102	933.786	0	1	;
211	873.743	0.024691359	1	;
212	883.014	0.010288066	1	;
213	882.623	0.068158436	1	;
214	858.602	0	1	;
215	870.952	0.043338477	1	;
216	893.841	0	1	;
217	859.511	0.041280864	1	;
218	909.314	0	1	;
219	906	0.065200618	1	;
22	911.065	0.102623457	1	;
220	911.98	0.047710907	1	;
221	911.761	0.019804526	1	;
222	906.963	0.041152264	1	;
223	912.749	0	1	;
224	901.097	0.043595678	1	;
225	908.835	0.011059671	1	;
226	909.291	0.000771605	1	;
227	905.241	0.050411522	1	;
228	887.735	0.053240742	1	;
229	906.086	0.028806585	1	;
230	912.555	0.002700617	1	;
2302	932.35	0	1	;
2303	940	2.529320988	1	;
2304	938.174	0	1	;
2305	941.117	0	1	;
2307	940	0	1	;
2308	938.472	0.07034465	1	;
2309	938.827	0	1	;
2310	931.651	0.049897121	1	;
2311	931.829	0	1	;
2312	938.732	0	1	;
2313	938.075	0	1	;
2315	950	0	1	;
2317	934.546	0.019547325	1	;
2318	933.921	0.015303498	1	;
2319	944.386	0	1	;
2320	937.433	0	1	;
2344	882.67	0.100308644	1	;
2345	882.891	0	1	;
2346	883.464	0	1	;
2347	889.68	0.090663581	1	;
2348	884	0.057741771	1	;
2349	942.785	0	1	;
2350	949.937	0.238168724	1	;
2351	947.408	0	1	;
2352	949.637	1.168852881	1	;
2353	950	0.66538066	1	;
2354	949.39	0	1	;
2362	943.387	0.021219136	1	;
2363	944.686	0.014789095	1	;
2368	940	0.359310698	1	;
2374	937.413	0	1	;
2375	937.075	0	1	;
2376	937.381	0	1	;
2379	938.706	0	1	;
2380	938.944	0	1	;
2381	922.761	0	1	;
2382	922.587	0	1	;
2402	924	0.0156893	1	;
2403	924	0	1	;
2404	924	0	1	;
2405	920.236	0.006815844	1	;
2406	921.041	0.001286008	1	;
2407	910.619	0.124871401	1	;
2408	912.564	0.043595679	1	;
2409	869.589	0.013631687	1	;
2410	874.608	0	1	;
2411	879.623	0	1	;
2412	877.979	0	1	;
2413	922.279	0.080504115	1	;
2414	898.855	0.01093107	1	;
2415	906	0.031121398	1	;
2416	902.105	0	1	;
2417	896.651	0	1	;
2418	892.226	0	1	;
2419	882.78	0	1	;
2420	895.545	0	1	;
2421	889.682	0	1	;
2422	886.01	0	1	;
2423	871.133	0.090020575	1	;
2424	899.405	0.033050411	1	;
2425	906.45	0.040380659	1	;
2426	915.259	0.013245885	1	;
2427	885.451	0	1	;
2428	884.895	0.008101852	1	;
2429	885.679	0.00784465	1	;
2430	914.669	0	1	;
2431	914.512	0.150334362	1	;
2433	929.109	0	1	;
2434	928.825	0	1	;
2435	928	0	1	;
2436	928	0	1	;
2453	946.849	0.036394033	1	;
2454	880	0.102623457	1	;
2455	880	0	1	;
2456	897.135	0.066872427	1	;
2457	911.634	0.107896091	1	;
2458	904.936	0.038966049	1	;
2459	903.139	0.007073045	1	;
2460	940	0	1	;
249	940.314	0	1	;
250	940.581	0.011316872	1	;
251	933.899	0.162551443	1	;
253	945.077	0.137602881	1	;
254	920.575	0.039351852	1	;
256	938.569	0.453189299	1	;
257	932	0.01710391	1	;
258	890.939	0	1	;
259	934.436	0	1	;
260	934.242	0	1	;
261	924	0	1	;
262	923.99	0.032664609	1	;
263	940.531	0	1	;
264	885.811	0.094264406	1	;
266	940.424	0	1	;
269	920	0	1	;
271	920	0.007073045	1	;
272	920	0.126286008	1	;
273	919.592	0	1	;
2737	946.838	0	1	;
2739	951	0	1	;
274	940.038	0	1	;
2740	950.766	0	1	;
2741	950.521	0	1	;
2742	950.062	0	1	;
2743	940.264	0	1	;
2744	941.987	0	1	;
2745	941.981	0	1	;
276	940.228	0	1	;
2772	942	0	1	;
2773	943.174	0.010545267	1	;
2788	933.951	0	1	;
2799	935.803	0	1	;
2812	947.409	0	1	;
2817	905.823	0.005144033	1	;
2936	879.812	0.021090536	1	;
2937	872.674	0.146604938	1	;
2938	859.726	0.012345679	1	;
2939	884.414	0.099794239	1	;
2940	905.785	0.059670783	1	;
2941	901.101	0.017618313	1	;
2942	865.41	0	1	;
2943	865.445	0	1	;
2944	857.685	0.00784465	1	;
2945	899.246	0.00784465	1	;
2946	878.462	0.00630144	1	;
2949	876.487	0.156507202	1	;
2950	842.135	0	1	;
2951	918.954	0.050540123	1	;
2952	913.106	0.122685185	1	;
2953	903.283	0.093749999	1	;
2996	907.708	0.04218107	1	;
2997	864.394	0.010288066	1	;
2998	865.61	0.014660494	1	;
2999	904	0.112782922	1	;
3	880	0.005915638	1	;
3003	929.196	0	1	;
3011	879.343	0	1	;
3012	893.342	0.145061728	1	;
3013	916.681	0	1	;
3014	906.027	0.062757201	1	;
3015	908.885	0.026234568	1	;
3016	876.438	0.075102881	1	;
3017	917.572	0	1	;
3018	919.683	0	1	;
3019	899.47	0.01247428	1	;
3020	914	0.039351851	1	;
3021	876.148	0.014660494	1	;
3031	930	0	1	;
3034	930	0	1	;
3035	894.289	0.020833334	1	;
3036	939.681	0	1	;
3038	943.02	0.026363169	1	;
3039	940.722	0.182870372	1	;
3042	934.975	0	1	;
3043	891.964	0.049382715	1	;
3044	923.396	0	1	;
3046	922.233	0	1	;
308	928	0	1	;
309	927.919	0.091692387	1	;
310	929.073	0	1	;
311	929.262	0	1	;
312	924	0	1	;
313	919.376	0	1	;
3139	882	0	1	;
3140	856.815	0	1	;
3141	846.308	0	1	;
3142	875.663	0.059927983	1	;
3143	903.864	0	1	;
3145	940.041	0	1	;
3149	928.103	0	1	;
3150	928.004	0	1	;
3151	934.188	0.011059671	1	;
3152	917.607	0	1	;
3153	917.803	0	1	;
3154	917.249	0.013374486	1	;
3155	918.782	0	1	;
3156	886.391	0	1	;
3157	924.567	0.005401235	1	;
3158	922.852	0	1	;
3159	929.386	0	1	;
3160	914.461	0.020190329	1	;
3167	911.008	0	1	;
3168	912.549	0	1	;
3174	929.613	0	1	;
3175	935.328	0.020961934	1	;
3176	920.197	0	1	;
3177	940	0	1	;
3178	933.885	0.017103909	1	;
3179	920.596	0	1	;
323	944.709	0	1	;
324	944.622	0	1	;
3240	862.425	0.021219135	1	;
3241	870.52	0	1	;
3242	877.357	0	1	;
3245	940	0	1	;
326	944.439	0	1	;
3275	870.751	0.006430041	1	;
3276	854.58	0.098894034	1	;
3277	879.721	0.003215021	1	;
4	876	0.151105965	1	;
424	916.315	0.031764403	1	;
425	883.969	0	1	;
426	915.244	0.013245885	1	;
427	914.433	0.003600823	1	;
428	914.113	0.040895062	1	;
429	905.488	0.021090535	1	;
430	919.004	0.058127573	1	;
431	922	0	1	;
432	922	0.022633744	1	;
433	920.72	0	1	;
434	920.967	0.012217079	1	;
435	917.849	0	1	;
436	916.899	0.021219136	1	;
437	917.382	0.052854937	1	;
438	917.129	0.030864197	1	;
439	882.388	0.002314815	1	;
440	882.343	0	1	;
441	914.938	0.096064815	1	;
442	916	0.108924897	1	;
443	919.547	0.008101852	1	;
444	916.024	0.060956789	1	;
445	879.456	0.101337449	1	;
446	886.525	0.006944444	1	;
447	883.103	0.066100824	1	;
448	917.084	0.012217078	1	;
449	915.317	0.156378601	1	;
450	914.219	0.092849795	1	;
451	914.039	0.014917695	1	;
452	916	0.208076132	1	;
453	914.71	0.06082819	1	;
454	911.946	0.125771606	1	;
455	911.771	0.012217079	1	;
456	911.869	0.083976337	1	;
457	913.385	0.022376543	1	;
458	913.642	0.184284978	1	;
459	913.397	0.152134774	1	;
460	921.537	0	1	;
461	918.768	0.055041153	1	;
462	920.111	0.067772633	1	;
463	920	0.026363169	1	;
464	920.786	0.083719136	1	;
465	919.866	0	1	;
466	919.899	0	1	;
467	920	0.062885802	1	;
468	916.503	0	1	;
469	916.245	0	1	;
470	920	0.007716049	1	;
471	919.978	0	1	;
472	917.829	0.052469137	1	;
473	918.684	0	1	;
474	919.174	0.12847222	1	;
475	918	0.012217078	1	;
476	884.84	0	1	;
477	925.569	0.18132716	1	;
478	920	0.04230967	1	;
479	926.122	0.04539609	1	;
480	923.432	0	1	;
481	923.542	0.016589506	1	;
482	924.882	0.016460905	1	;
483	925.083	0.020061728	1	;
484	926.118	0.015817901	1	;
485	926	0.056841564	1	;
486	928	0.013631687	1	;
487	928.894	0.013503087	1	;
488	928.971	0.007973251	1	;
489	929.604	0.02031893	1	;
49	940.196	0.346836418	1	;
490	924	0.227880655	1	;
491	920.453	0.085648147	1	;
492	930	0.131558642	1	;
493	929.015	0	1	;
494	928	0	1	;
495	928.966	0	1	;
496	926	0.102752057	1	;
497	922.562	0.090792182	1	;
498	922.404	0.0783179	1	;
499	920.737	0.137345679	1	;
5	845.391	0.031893005	1	;
500	928.36	0	1	;
501	928.549	0	1	;
502	929.624	0	1	;
503	929.397	0	1	;
504	929.804	0.013760288	1	;
505	929.725	0	1	;
506	930.865	0.020447531	1	;
507	932	0.021476337	1	;
508	922.079	0.028806585	1	;
509	922	0	1	;
510	921.537	0.166666664	1	;
511	924	0.148726854	1	;
512	923.444	0.032921811	1	;
513	922.913	0.039609054	1	;
514	925.523	0.166409465	1	;
515	924.887	0.067129629	1	;
516	921.475	0.070216049	1	;
517	922.081	0.12191358	1	;
518	920.604	0.19675926	1	;
519	920.182	0.111882718	1	;
520	921.66	0.099665637	1	;
521	928	0.00617284	1	;
522	928	0.044881688	1	;
523	929.992	0.016589506	1	;
524	936.752	0.153420783	1	;
525	934.988	0.059027777	1	;
526	934.929	0.111496913	1	;
527	934.698	0.02494856	1	;
528	932	0.14197531	1	;
529	927.273	0.165252056	1	;
530	938.66	0	1	;
531	928	0.010802469	1	;
532	929.966	0.028034979	1	;
533	928.39	0.040380658	1	;
534	924	0.03600823	1	;
535	919.975	0.038194444	1	;
536	919.499	0.003600823	1	;
537	920	0.007201646	1	;
538	919.613	0.11882716	1	;
539	925.24	0.243505658	1	;
540	919.608	0.026363169	1	;
541	921.438	0.068544238	1	;
542	917.979	0.033050411	1	;
543	923.479	0	1	;
544	925.472	0.046296296	1	;
545	887.923	0.010416667	1	;
546	927.753	0.222865226	1	;
547	927.873	0.024819959	1	;
548	926.12	0	1	;
549	924	0.063271604	1	;
550	923.777	0.312114198	1	;
551	924	0	1	;
553	914.924	0.032664609	1	;
554	932	0.071630658	1	;
555	932	0.07973251	1	;
556	931.131	0.150334362	1	;
557	930.718	0.012345679	1	;
558	931.153	0.346707819	1	;
559	929.434	0	1	;
560	928.991	0	1	;
561	928.815	0	1	;
562	929.429	0	1	;
563	929.65	0.002314815	1	;
564	929.464	0	1	;
565	929.175	0	1	;
566	928.979	0.079089506	1	;
567	928.901	0.05774177	1	;
568	928	0	1	;
569	928	0.16859568	1	;
570	928	0.016975309	1	;
571	926.124	0.090792181	1	;
572	926.119	0	1	;
573	926.112	0	1	;
574	926.104	0.314557615	1	;
575	926	0	1	;
576	926	0.018647119	1	;
577	924.892	0.092721194	1	;
578	925.085	0.116383744	1	;
579	923.376	0.130015433	1	;
580	923.409	0	1	;
581	923.539	0	1	;
582	923.536	0.041280864	1	;
583	923.427	0.059670782	1	;
584	923.309	0.011831276	1	;
585	923.39	0	1	;
586	923.282	0	1	;
587	923.199	0.012602881	1	;
588	922	0.046553498	1	;
589	922	0.073816873	1	;
590	922	0.052211934	1	;
591	921.423	0.077932098	1	;
592	921.377	0.030092592	1	;
593	921.464	0	1	;
594	921.608	0	1	;
595	921.452	0.030864197	1	;
596	920.706	0.022890946	1	;
597	920.649	0.02494856	1	;
598	920.604	0.028806585	1	;
599	920	0	1	;
6	844.867	0.002507716	1	;
600	920	0	1	;
601	919.696	0.005787037	1	;
602	919.007	0.087448559	1	;
603	919.338	0	1	;
604	918.942	0	1	;
605	919.457	0	1	;
606	916.498	0.099022635	1	;
607	916.174	0	1	;
608	916.333	0.01247428	1	;
609	916.637	0.078317903	1	;
610	916	0.018261317	1	;
611	914.902	0.04063786	1	;
612	911.199	0.020833333	1	;
613	913.317	0.098636831	1	;
614	915.099	0.035493827	1	;
615	916	0.014531893	1	;
616	912.953	0.063400205	1	;
617	912.725	0.01260288	1	;
618	914.531	0.066872428	1	;
619	915.937	0.011831276	1	;
620	917.195	0.165766463	1	;
621	916.904	0.460519548	1	;
622	915.246	0.286008232	1	;
623	915.141	0.030735597	1	;
624	916.362	0.064686214	1	;
625	916.406	0.00784465	1	;
626	916.331	0.14686214	1	;
627	918	0.080632716	1	;
628	917.886	0	1	;
629	917.771	0.036779836	1	;
630	917.575	0.009130658	1	;
631	917.715	0.015174897	1	;
632	918.963	0.04050926	1	;
633	919.379	0.142746914	1	;
634	920.462	0.166795269	1	;
635	920.327	0.046296296	1	;
636	921.681	0.185056585	1	;
637	921.352	0.067772634	1	;
638	922.489	0.043595679	1	;
639	923.009	0.069444446	1	;
640	922.81	0.080118311	1	;
641	924	0.135030864	1	;
642	924	0.043595679	1	;
643	925.808	0.048353911	1	;
644	924.921	0.073559672	1	;
645	924.894	0.015432099	1	;
646	924.574	0.074845678	1	;
647	924	0.030606996	1	;
648	918.881	0.011831276	1	;
649	919.948	0.113040123	1	;
650	919.97	0.081790125	1	;
651	918.862	0	1	;
652	918.52	0	1	;
653	918.665	0.031507202	1	;
654	920.055	0.077417694	1	;
655	920	0.010288066	1	;
656	920.161	0.106867284	1	;
657	920	0.011831275	1	;
658	920	0.11689815	1	;
659	918	0.040509259	1	;
660	917.151	0.009516461	1	;
661	917.186	0.05915638	1	;
662	916.857	0.020961934	1	;
663	916.448	0.012217078	1	;
664	916.625	0.120113168	1	;
665	921.114	0.021733539	1	;
666	922.221	0.008873457	1	;
667	924	0.012088478	1	;
668	924	0.027391975	1	;
669	926	0.027649177	1	;
670	927.952	0.07368827	1	;
671	928	0	1	;
672	928.597	0.063528807	1	;
673	928.458	0.104423869	1	;
674	928.103	0	1	;
675	929.61	0.007973251	1	;
676	929.979	0	1	;
677	930	0.075617283	1	;
678	929.931	0.151491769	1	;
679	932	0.023919753	1	;
680	934.189	0.01260288	1	;
681	934.041	0.070344649	1	;
682	936.392	0.02494856	1	;
683	938.843	0.052340535	1	;
684	938.303	0.091949589	1	;
685	938.375	0.032664608	1	;
686	887.146	0.083204733	1	;
687	886.968	0	1	;
688	886.555	0	1	;
689	884.108	0.105967079	1	;
690	881.159	0.026748972	1	;
691	911.545	0	1	;
7	841.668	0.016718107	1	;
755	944.649	0	1	;
756	944.737	0	1	;
784	940	0.091820988	1	;
785	918.918	0	1	;
786	880	0.006044239	1	;
787	940.375	0.034722221	1	;
789	930.023	0.115869341	1	;
794	943.174	0.040252058	1	;
795	942	0.008616255	1	;
804	941.485	0	1	;
829	950.932	0	1	;
850	930	0	1	;
854	934.011	0.236754117	1	;
855	930	0	1	;
856	913.486	0	1	;
857	902	0.015432099	1	;
859	936.828	0	1	;
860	935.956	0	1	;
861	938.068	0	1	;
862	935.707	0	1	;
863	934.572	0	1	;
864	934.667	0	1	;
865	937	0.130015431	1	;
867	906.71	0	1	;
868	909.317	0	1	;
869	943.304	0	1	;
870	942.18	0	1	;
871	940.228	0.079989711	1	;
872	940.84	0.028806585	1	;
873	941.509	0	1	;
874	941.408	0	1	;
875	940.869	0.004501029	1	;
876	940.404	0.139660494	1	;
877	940	0	1	;
878	940.378	0.013631687	1	;
879	941.435	0	1	;
880	935.805	0	1	;
881	933.592	0.027263374	1	;
882	934.516	0	1	;
883	938.768	0	1	;
884	887.261	0.080375513	1	;
885	898	0.033436214	1	;
886	920.51	0	1	;
887	894.748	0.005915638	1	;
888	940.484	0	1	;
889	924	0.02031893	1	;
890	921.075	0.109825103	1	;
896	937.759	0	1	;
897	935.641	0	1	;
898	935.414	0	1	;
899	935.31	0	1	;
900	940	0	1	;
901	940	0.130144033	1	;
902	940	0.117412553	1	;
903	938.977	0.04063786	1	;
904	919.868	0.199974281	1	;
905	930	0.114454733	1	;
906	933.368	0.157407407	1	;
907	934.56	0.059670783	1	;
908	938.656	0.074331274	1	;
909	930.563	0.030735596	1	;
910	923.508	0.090149177	1	;
911	927.205	0.126414608	1	;
912	940.437	0	1	;
913	940.954	0.040123457	1	;
914	940.545	0.050154321	1	;
915	940.524	0	1	;
916	941.404	0	1	;
917	930.756	0.031507203	1	;
918	934.71	0.025205761	1	;
919	943.451	0.009645062	1	;
920	939.098	0.022376543	1	;
921	929.869	0.074202674	1	;
922	939.126	0.022119342	1	;
923	947.309	0	1	;
924	923.803	0.041795268	1	;
925	937.843	0.002186214	1	;
928	947.343	0.03896605	1	;
929	940	0.106610082	1	;
930	940	0.023662551	1	;
931	940	0	1	;
932	940	0	1	;
933	940	0.124228394	1	;
934	940.633	0	1	;
935	940.495	0.040380659	1	;
936	939.733	2.896990741	1	;
937	940	0.045010288	1	;
938	937.966	0.049382716	1	;
939	933.031	0.005401235	1	;
940	934.909	0.009645062	1	;
941	935.338	0.061728395	1	;
942	937.983	0.016975308	1	;
943	936.709	0.018904321	1	;
944	934.722	0.026363169	1	;
945	930.727	0.150848768	1	;
946	930.506	0.00784465	1	;
947	930	0	1	;
948	929.57	0.014531893	1	;
949	923.969	0.045910494	1	;
950	923.683	0	1	;
951	938.581	0	1	;
952	937.702	0	1	;
953	937.963	0	1	;
954	936.631	0.028935185	1	;
955	935.842	0.007458848	1	;
956	936	0.011831276	1	;
957	935.8	0.106610084	1	;
958	935.474	0	1	;
959	935.371	0	1	;
960	936.49	0	1	;
961	934.838	0.017361111	1	;
962	934.459	0	1	;
963	920.48	0.268132716	1	;
964	920.66	0.023662551	1	;
965	920.534	0	1	;
966	940.382	0.24331276	1	;
967	941.342	0.047325103	1	;
968	941.433	0	1	;
969	941.403	0	1	;
970	941.25	0	1	;
975	921.561	0	1	;
976	897.93	0	1	;
977	893.132	0.083847736	1	;
978	894	0	1	;
979	937.286	0.133616257	1	;
981	935.351	0	1	;
982	920.545	0	1	;
983	940.443	0	1	;
985	917.482	0.066100824	1	;
986	941.215	0.085390947	1	;

[RESERVOIRS]
;ID	Head	Pattern
1	1050	 	;

[TANKS]
;ID	Elevation	InitLevel	MinLevel	MaxLevel	Diameter	MinVol	VolCurve

[PIPES]
;ID	Node1	Node2	Length	Diameter	Roughness	MinorLoss	Status
1	1	829	99.347767	152.4	0.0015	2.9804	Open	;
1015	850	3031	13.791175	152.4	0.0015	0.4137	Open	;
1016	850	855	11.951674	152.4	0.0015	0.3586	Open	;
1021	854	3031	38.709179	152.4	0.0015	1.1613	Open	;
1022	855	3034	4.270129	152.4	0.0015	0.1281	Open	;
1023	856	868	22.906186	152.4	0.0015	0.4581	Open	;
1024	857	3035	38.163318	152.4	0.0015	0.7633	Open	;
1026	859	860	17.98486	152.4	0.0015	0.3597	Open	;
1027	860	862	3.723305	152.4	0.0015	0.0745	Open	;
1028	861	925	6.244992	76.2	0.0015	0.1249	Open	;
1029	862	2381	258.132929	152.4	0.0015	5.1627	Open	;
1030	863	882	1.821301	76.2	0.0015	0.0546	Open	;
1031	864	863	4.418045	76.2	0.0015	0.1325	Closed	;
1032	865	3036	121.581531	76.2	0.0015	2.4316	Open	;
1034	867	857	21.593374	152.4	0.0015	0.4319	Open	;
1035	868	867	34.408269	76.2	0.0015	0.6882	Open	;
1036	869	919	30.127259	152.4	0.0015	0.6025	Open	;
1037	870	3038	35.266199	152.4	0.0015	0.7053	Open	;
1038	871	49	2.599524	152.4	0.0015	0.052	Open	;
1039	872	3039	11.806643	76.2	0.0015	0.3542	Open	;
1040	873	879	6.419437	76.2	0.0015	0.1926	Open	;
1041	874	873	12.517088	152.4	0.0015	0.3755	Open	;
1042	875	876	45.757128	152.4	0.0015	0.9151	Open	;
1043	876	878	2.637191	152.4	0.0015	0.0527	Open	;
1044	877	936	5.644802	152.4	0.0015	0.1129	Open	;
1045	878	877	48.222934	76.2	0.0015	0.9645	Open	;
1046	879	916	6.644837	152.4	0.0015	0.1329	Open	;
1047	850	896	302.642795	152.4	0.0015	9.0793	Open	;
1048	880	956	4.308506	152.4	0.0015	0.0862	Closed	;
1049	881	2102	11.656974	152.4	0.0015	0.3497	Open	;
1050	882	962	1.849229	76.2	0.0015	0.0555	Open	;
1051	883	969	129.74279	76.2	0.0015	3.8923	Open	;
1052	11	259	6.017192	152.4	0.0015	0.1805	Open	;
1053	884	977	66.889927	152.4	0.0015	1.3378	Open	;
1054	885	976	3.722929	76.2	0.0015	0.0745	Open	;
1055	258	2347	6.792023	76.2	0.0015	0.1358	Open	;
1056	856	975	115.966028	76.2	0.0015	2.3193	Open	;
1057	874	967	5.797099	152.4	0.0015	0.1739	Open	;
1058	886	965	3.606546	76.2	0.0015	0.1082	Open	;
1059	887	978	7.945666	76.2	0.0015	0.1589	Open	;
1060	888	249	9.635279	76.2	0.0015	0.2891	Open	;
1061	888	250	6.300477	76.2	0.0015	0.189	Open	;
1062	889	949	5.009248	76.2	0.0015	0.1503	Open	;
1063	890	985	48.814831	76.2	0.0015	1.4644	Open	;
1064	880	955	3.958177	76.2	0.0015	0.0792	Closed	;
1072	896	952	2.01143	76.2	0.0015	0.0603	Open	;
1073	897	958	3.647833	152.4	0.0015	0.1094	Open	;
1074	897	880	7.481804	76.2	0.0015	0.2245	Open	;
1075	898	959	1.59864	76.2	0.0015	0.048	Open	;
1076	899	3042	7.376654	152.4	0.0015	0.2213	Open	;
1077	885	3043	46.637592	152.4	0.0015	0.9328	Open	;
1078	885	857	38.320097	76.2	0.0015	0.7664	Open	;
1079	900	932	4.202678	76.2	0.0015	0.0841	Open	;
1080	901	929	52.865634	152.4	0.0015	1.0573	Open	;
1081	902	900	4.367665	76.2	0.0015	0.0874	Open	;
1082	903	920	58.752735	152.4	0.0015	1.7626	Open	;
1083	904	924	43.971186	76.2	0.0015	1.3191	Open	;
1084	905	910	53.301368	76.2	0.0015	1.599	Open	;
1085	906	908	85.274973	152.4	0.0015	2.5582	Open	;
1086	907	940	4.988898	76.2	0.0015	0.1497	Open	;
1087	908	903	3.79172	152.4	0.0015	0.1138	Open	;
1088	909	789	7.756758	76.2	0.0015	0.2327	Open	;
1089	906	939	7.604904	152.4	0.0015	0.1521	Open	;
1090	906	907	52.579496	76.2	0.0015	1.5774	Open	;
1091	910	911	91.691166	76.2	0.0015	2.7507	Open	;
1092	911	889	54.920694	152.4	0.0015	1.6476	Open	;
1093	912	935	9.674723	152.4	0.0015	0.1935	Open	;
1094	913	875	8.265315	76.2	0.0015	0.1653	Open	;
1095	914	934	13.746543	76.2	0.0015	0.2749	Open	;
1096	915	912	7.33349	76.2	0.0015	0.1467	Open	;
1097	915	914	4.795314	76.2	0.0015	0.0959	Open	;
1098	874	986	9.070752	152.4	0.0015	0.1814	Open	;
1099	916	2303	93.568261	152.4	0.0015	1.8714	Open	;
11	10	882	2.374937	152.4	0.0015	0.0712	Open	;
1100	917	921	43.725385	152.4	0.0015	1.3118	Open	;
1101	918	917	59.106394	76.2	0.0015	1.7732	Open	;
1102	919	2349	7.12522	152.4	0.0015	0.1425	Open	;
1103	920	942	45.042843	152.4	0.0015	1.3513	Open	;
1104	921	948	5.814757	76.2	0.0015	0.1744	Open	;
1105	905	921	92.820868	76.2	0.0015	2.7846	Open	;
1106	789	945	97.344431	76.2	0.0015	2.9203	Open	;
1107	907	944	50.680158	152.4	0.0015	1.5204	Open	;
1108	922	903	55.709856	76.2	0.0015	1.6713	Open	;
1109	912	901	51.064853	76.2	0.0015	1.0213	Open	;
1110	923	928	8.514679	76.2	0.0015	0.1703	Open	;
1112	924	950	5.565501	76.2	0.0015	0.167	Open	;
1113	889	924	3.775819	152.4	0.0015	0.1133	Open	;
1114	925	943	18.006256	152.4	0.0015	0.5402	Open	;
1115	861	2379	10.065443	76.2	0.0015	0.2013	Open	;
1119	928	871	107.125887	76.2	0.0015	2.1425	Open	;
1120	929	902	5.318364	152.4	0.0015	0.1064	Open	;
1121	930	900	4.667955	76.2	0.0015	0.0934	Open	;
1122	931	900	6.628582	152.4	0.0015	0.1989	Open	;
1123	932	922	38.687942	76.2	0.0015	0.7738	Open	;
1124	933	876	58.113115	152.4	0.0015	1.7434	Open	;
1125	914	930	111.331916	76.2	0.0015	2.2266	Open	;
1126	934	913	38.365336	76.2	0.0015	0.7673	Open	;
1127	935	872	44.794194	152.4	0.0015	0.8959	Open	;
1128	936	937	70.721743	152.4	0.0015	2.1217	Open	;
1129	937	931	7.011134	76.2	0.0015	0.2103	Open	;
1130	938	2310	86.472359	76.2	0.0015	2.5942	Open	;
1131	939	946	44.489335	152.4	0.0015	1.3347	Open	;
1132	940	941	6.161253	76.2	0.0015	0.1848	Open	;
1133	941	2308	44.888347	76.2	0.0015	1.3466	Open	;
1134	942	925	5.168036	152.4	0.0015	0.155	Open	;
1135	943	918	29.875825	152.4	0.0015	0.8963	Open	;
1136	944	918	4.158022	152.4	0.0015	0.0832	Open	;
1137	945	917	4.261143	76.2	0.0015	0.0852	Open	;
1138	946	909	5.949601	76.2	0.0015	0.1785	Open	;
1139	947	905	8.435218	152.4	0.0015	0.2531	Open	;
1140	948	911	46.174098	152.4	0.0015	1.3852	Open	;
1141	890	12	15.278533	76.2	0.0015	0.4584	Open	;
1142	949	890	74.539647	152.4	0.0015	2.2362	Open	;
1143	950	3044	12.432879	152.4	0.0015	0.373	Open	;
1144	951	883	5.293909	152.4	0.0015	0.1588	Open	;
1145	952	960	36.192826	76.2	0.0015	1.0858	Open	;
1146	953	936	127.701554	76.2	0.0015	3.831	Open	;
1147	954	859	4.210702	76.2	0.0015	0.0842	Open	;
1148	955	954	33.86033	152.4	0.0015	0.6772	Open	;
1149	956	979	33.786487	76.2	0.0015	0.6757	Open	;
1150	957	897	4.16905	152.4	0.0015	0.1251	Open	;
1151	958	899	3.388318	152.4	0.0015	0.1017	Open	;
1152	959	981	1.916481	152.4	0.0015	0.0575	Open	;
1153	960	898	33.933787	152.4	0.0015	1.018	Open	;
1154	961	897	15.460896	152.4	0.0015	0.4638	Open	;
1155	962	260	4.589683	152.4	0.0015	0.1377	Open	;
1156	865	859	6.029874	76.2	0.0015	0.1206	Open	;
1157	963	886	5.008583	76.2	0.0015	0.1503	Open	;
1158	964	886	3.625397	152.4	0.0015	0.1088	Open	;
1159	965	982	1.704178	76.2	0.0015	0.0511	Open	;
1160	966	983	3.949749	76.2	0.0015	0.079	Open	;
1161	967	250	47.708363	152.4	0.0015	1.4313	Open	;
1162	968	916	8.281144	152.4	0.0015	0.1656	Open	;
1163	969	263	80.480729	152.4	0.0015	2.4144	Open	;
1164	970	968	39.436086	76.2	0.0015	0.7887	Open	;
1170	975	3046	23.997985	152.4	0.0015	0.48	Open	;
1171	976	887	37.37799	76.2	0.0015	0.7476	Open	;
1172	977	887	8.861623	76.2	0.0015	0.1772	Open	;
1173	978	258	41.348289	76.2	0.0015	0.827	Open	;
1174	979	966	130.658908	76.2	0.0015	2.6132	Open	;
1176	981	899	1.838772	152.4	0.0015	0.0552	Open	;
1177	982	254	4.632721	152.4	0.0015	0.139	Open	;
1178	983	888	2.690628	76.2	0.0015	0.0807	Open	;
1181	985	904	78.353244	76.2	0.0015	2.3506	Open	;
1182	872	875	3.774883	152.4	0.0015	0.0755	Open	;
1183	986	865	145.814438	152.4	0.0015	2.9163	Open	;
12	11	10	2.603349	76.2	0.0015	0.0781	Open	;
1220	1013	253	4.2015	76.2	0.0015	0.084	Open	;
13	12	13	4.4144	152.4	0.0015	0.0883	Open	;
14	13	910	49.707952	152.4	0.0015	0.9942	Open	;
15	14	2951	14.980538	152.4	0.0015	0.4494	Open	;
16	15	14	40.946741	76.2	0.0015	1.2284	Open	;
17	16	2952	72.916567	152.4	0.0015	1.4583	Open	;
18	17	458	38.868962	76.2	0.0015	1.1661	Open	;
19	18	230	4.180299	76.2	0.0015	0.0836	Open	;
2	2740	2741	0.001	152.4	0.0015	0	Open	;
20	19	457	29.46817	76.2	0.0015	0.5894	Open	;
209	183	184	2.840885	76.2	0.0015	0.0568	Open	;
21	20	2953	70.41926	152.4	0.0015	1.4084	Open	;
210	184	185	8.051591	152.4	0.0015	0.161	Open	;
211	185	186	2.640067	152.4	0.0015	0.0528	Open	;
212	186	2996	28.536297	76.2	0.0015	0.5707	Open	;
213	187	198	36.235331	76.2	0.0015	0.7247	Open	;
214	188	2939	29.30424	152.4	0.0015	0.5861	Open	;
215	189	190	4.222538	76.2	0.0015	0.0845	Open	;
216	190	200	17.208288	76.2	0.0015	0.3442	Open	;
217	191	228	3.891025	76.2	0.0015	0.0778	Open	;
218	192	194	4.390693	76.2	0.0015	0.0878	Open	;
219	193	216	2.171656	76.2	0.0015	0.0434	Open	;
22	21	456	31.671386	152.4	0.0015	0.6334	Open	;
220	194	191	35.416319	76.2	0.0015	0.7083	Open	;
221	188	195	43.986941	76.2	0.0015	0.8797	Open	;
222	195	187	3.13207	76.2	0.0015	0.0626	Open	;
223	196	197	4.541324	152.4	0.0015	0.0908	Open	;
224	197	199	3.093701	76.2	0.0015	0.0619	Open	;
225	198	2997	37.751504	76.2	0.0015	0.755	Open	;
226	199	217	19.438468	152.4	0.0015	0.3888	Open	;
227	200	229	3.774745	152.4	0.0015	0.0755	Open	;
228	201	208	50.427356	152.4	0.0015	1.0085	Open	;
229	201	202	6.527129	76.2	0.0015	0.1305	Open	;
23	22	219	82.771744	152.4	0.0015	1.6554	Open	;
230	202	203	38.467472	76.2	0.0015	0.7693	Open	;
231	203	215	2.696811	152.4	0.0015	0.0539	Open	;
232	204	205	9.122246	76.2	0.0015	0.1824	Open	;
233	205	207	6.157821	152.4	0.0015	0.1232	Open	;
234	206	214	2.199263	76.2	0.0015	0.044	Open	;
235	207	206	2.470362	152.4	0.0015	0.0494	Open	;
236	208	213	3.569039	76.2	0.0015	0.0714	Open	;
237	209	210	19.401676	76.2	0.0015	0.388	Open	;
238	210	2942	5.682883	152.4	0.0015	0.1137	Open	;
239	211	2998	27.048819	152.4	0.0015	0.541	Open	;
240	3	211	21.422681	76.2	0.0015	0.4285	Open	;
241	208	212	1.671526	152.4	0.0015	0.0334	Open	;
242	212	2098	6.549252	152.4	0.0015	0.131	Open	;
243	213	209	30.324272	152.4	0.0015	0.6065	Open	;
244	214	209	16.550011	76.2	0.0015	0.331	Open	;
245	215	204	33.199915	76.2	0.0015	0.664	Open	;
246	216	201	14.150806	76.2	0.0015	0.283	Open	;
247	203	196	17.606019	76.2	0.0015	0.3521	Open	;
248	217	204	27.420801	76.2	0.0015	0.5484	Open	;
249	218	225	2.369777	152.4	0.0015	0.0474	Open	;
250	219	227	4.994125	76.2	0.0015	0.0999	Open	;
2502	11	3042	6.105594	76.2	0.0015	0.1832	Open	;
251	17	223	1.941282	76.2	0.0015	0.0582	Open	;
252	220	2407	36.233649	152.4	0.0015	0.7247	Open	;
253	189	21	5.577009	152.4	0.0015	0.1115	Open	;
254	19	221	6.292678	76.2	0.0015	0.1259	Open	;
255	221	17	3.438168	76.2	0.0015	0.0688	Open	;
256	16	220	4.512515	76.2	0.0015	0.0903	Open	;
257	20	226	4.147187	152.4	0.0015	0.0829	Open	;
258	222	183	39.086307	76.2	0.0015	0.7817	Open	;
2585	2098	3139	1.492146	76.2	0.0015	0.0298	Open	;
2586	207	3140	1.522175	76.2	0.0015	0.0304	Open	;
2587	6	3141	2.081581	76.2	0.0015	0.0416	Open	;
2588	4	3142	1.53674	76.2	0.0015	0.0307	Open	;
2589	2099	3143	1.657558	76.2	0.0015	0.0331	Open	;
259	223	220	4.735542	152.4	0.0015	0.0947	Open	;
2591	274	3145	1.492015	152.4	0.0015	0.0448	Open	;
2595	674	3149	1.494858	76.2	0.0015	0.0448	Open	;
2596	568	3150	1.510138	76.2	0.0015	0.0302	Open	;
2597	680	3151	1.506287	152.4	0.0015	0.0452	Open	;
2598	630	3152	1.507456	76.2	0.0015	0.0301	Open	;
2599	629	3153	1.496604	76.2	0.0015	0.0449	Open	;
260	224	228	35.124192	76.2	0.0015	0.7025	Open	;
2600	660	3154	1.509471	76.2	0.0015	0.0453	Open	;
2601	653	3155	1.506615	152.4	0.0015	0.0452	Open	;
2602	688	3156	1.502996	152.4	0.0015	0.0301	Open	;
2603	646	3157	1.505739	152.4	0.0015	0.0301	Open	;
2604	640	3158	1.498654	76.2	0.0015	0.03	Open	;
2605	559	3159	1.500135	152.4	0.0015	0.045	Open	;
2606	618	3160	1.501299	76.2	0.0015	0.03	Open	;
261	225	222	4.585672	152.4	0.0015	0.0917	Open	;
2613	21	3167	1.501269	152.4	0.0015	0.03	Open	;
2614	230	3168	1.504173	76.2	0.0015	0.0301	Open	;
262	226	218	1.963805	76.2	0.0015	0.0393	Open	;
2620	948	3174	1.503978	76.2	0.0015	0.0451	Open	;
2621	941	3175	1.493486	152.4	0.0015	0.0448	Open	;
2622	13	3176	1.505259	76.2	0.0015	0.0452	Open	;
2623	937	3177	1.502964	76.2	0.0015	0.0451	Open	;
2624	2102	3178	1.503263	152.4	0.0015	0.0451	Open	;
2625	965	3179	1.499315	152.4	0.0015	0.045	Open	;
263	227	2999	45.67194	76.2	0.0015	0.9134	Open	;
264	228	188	17.202812	76.2	0.0015	0.3441	Open	;
265	229	2458	15.839403	152.4	0.0015	0.3168	Open	;
266	230	218	14.471499	152.4	0.0015	0.2894	Open	;
285	249	276	3.633813	76.2	0.0015	0.109	Open	;
286	250	266	9.625136	152.4	0.0015	0.2888	Open	;
287	251	881	6.29551	152.4	0.0015	0.1259	Open	;
2907	2302	906	21.303068	152.4	0.0015	0.6391	Open	;
2908	2303	2304	50.214034	76.2	0.0015	1.5064	Open	;
2909	2304	953	4.016942	152.4	0.0015	0.1205	Open	;
291	254	271	37.092715	76.2	0.0015	1.1128	Open	;
2910	913	2305	16.797201	76.2	0.0015	0.3359	Open	;
2911	2305	970	11.655329	152.4	0.0015	0.2331	Open	;
2914	901	2307	9.357574	152.4	0.0015	0.2807	Open	;
2915	2307	933	4.335551	152.4	0.0015	0.1301	Open	;
2916	2308	2309	5.090867	76.2	0.0015	0.1527	Open	;
2917	2309	920	4.078534	76.2	0.0015	0.1224	Open	;
2918	2310	2311	5.526797	152.4	0.0015	0.1658	Open	;
2919	2311	2302	27.917492	76.2	0.0015	0.8375	Open	;
2920	922	2312	3.604239	76.2	0.0015	0.1081	Open	;
2921	2312	938	7.710334	152.4	0.0015	0.2313	Open	;
2922	896	2313	5.69279	76.2	0.0015	0.1708	Open	;
2923	2313	951	10.487542	152.4	0.0015	0.3146	Open	;
2925	2315	854	322.293693	152.4	0.0015	9.6688	Open	;
2927	2317	961	7.72752	152.4	0.0015	0.2318	Open	;
2928	2102	2318	6.815536	152.4	0.0015	0.2045	Open	;