[TITLE]

[JUNCTIONS]
;ID	Elev	Demand	Pattern
10	0	22.65347727	1	;
11	0	3851.091137	1	;
12	0	2652.722189	1	;
13	0	2652.722189	1	;
14	0	2093.1813	1	;
15	0	2093.1813	1	;
16	0	3851.091137	1	;
17	0	1302.574943	1	;
18	0	2652.722189	1	;
19	0	2652.722189	1	;
2	0	2093.1813	1	;
20	0	3851.091137	1	;
3	0	2093.1813	1	;
4	0	1998.0368	1	;
5	0	1998.036695	1	;
6	0	1998.036695	1	;
7	0	1998.036695	1	;
8	0	1998.036695	1	;
9	0	3851.091137	1	;

[RESERVOIRS]
;ID	Head	Pattern
1	91.44	 	;

[TANKS]
;ID	Elevation	InitLevel	MinLevel	MaxLevel	Diameter	MinVol	VolCurve

[PIPES]
;ID	Node1	Node2	Length	Diameter	Roughness	MinorLoss	Status
1	1	2	3535.68	4876.8	0.0015	0	Open	;
10	11	9	3413.76	1524	0.0015	0	Open	;
11	12	11	4419.6	1524	0.0015	0	Open	;
12	13	12	3718.56	914.4	0.0015	0	Open	;
13	14	13	7345.68	3657.6	0.0015	0	Open	;
14	15	14	6431.28	4572	0.0015	0	Open	;
15	1	15	4724.4	4267.2	0.0015	0	Open	;
16	10	17	8046.72	3657.6	0.0015	0	Open	;
17	12	18	9509.76	2743.2	0.0015	0	Open	;
18	18	19	7315.2	914.4	0.0015	0	Open	;
19	11	20	4389.12	5181.6	0.0015	0	Open	;
2	2	3	6035.04	4876.8	0.0015	0	Open	;
20	20	16	11704.32	1828.8	0.0015	0	Open	;
21	9	16	8046.72	1524	0.0015	0	Open	;
22	1	2	3535.68	4876.8	0.0015	0	Open	;
23	2	3	6035.04	2133.6	0.0015	0	Open	;
24	3	4	2225.04	4876.8	0.0015	0	Open	;
25	4	5	2529.84	2743.2	0.0015	0	Open	;
26	5	6	2621.28	3657.6	0.0015	0	Open	;
27	6	7	5821.68	2743.2	0.0015	0	Open	;
28	7	8	2926.08	2133.6	0.0015	0	Open	;
29	8	9	3810	4267.2	0.0015	0	Open	;
3	3	4	2225.04	4876.8	0.0015	0	Open	;
30	9	10	2926.08	2438.4	0.0015	0	Open	;
31	11	9	3413.76	3962.4	0.0015	0	Open	;
32	12	11	4419.6	3657.6	0.0015	0	Open	;
33	13	12	3718.56	4876.8	0.0015	0	Open	;
34	14	13	7345.68	3352.8	0.0015	0	Open	;
35	15	14	6431.28	3962.4	0.0015	0	Open	;
36	1	15	4724.4	4267.2	0.0015	0	Open	;
37	10	17	8046.72	2133.6	0.0015	0	Open	;
38	12	18	9509.76	2438.4	0.0015	0	Open	;
39	18	19	7315.2	2133.6	0.0015	0	Open	;
4	4	5	2529.84	2438.4	0.0015	0	Open	;
40	11	20	4389.12	4876.8	0.0015	0	Open	;
41	20	16	11704.32	2133.6	0.0015	0	Open	;
42	9	16	8046.72	3048	0.0015	0	Open	;
5	5	6	2621.28	3352.8	0.0015	0	Open	;
6	6	7	5821.68	1828.8	0.0015	0	Open	;
7	7	8	2926.08	1219.2	0.0015	0	Open	;
8	8	9	3810	2133.6	0.0015	0	Open	;
9	9	10	2926.08	4572	0.0015	0	Open	;

[PUMPS]
;ID	Node1	Node2	Parameters

[VALVES]
;ID	Node1	Node2	Diameter	Type	Setting	MinorLoss

[TAGS]

[DEMANDS]
;Junction	Demand	Pattern	Category

[STATUS]
;ID	Status/Setting

[PATTERNS]
;ID	M1	M2	M3	M4	M5	M6
1	0.769200026988983
1	0.692300021648407
1	0.538500010967255
1	0.461499989032745
1	0.923099994659424
1	1
1	0.923099994659424
1	0.846199989318848
1	0.769200026988983
1	0.692300021648407
1	0.538500010967255
1	0.461499989032745
1	0.923099994659424
1	1
1	0.923099994659424
1	0.846199989318848
1	0.769200026988983
1	0.692300021648407
1	0.538500010967255
1	0.461499989032745
1	0.923099994659424
1	1
1	0.923099994659424
1	0.846199989318848
1	0.769200026988983
1	0.692300021648407
1	0.538500010967255
1	0.461499989032745
1	0.923099994659424
1	1
1	0.923099994659424
1	0.846199989318848
1	0.769200026988983
1	0.692300021648407
1	0.538500010967255
1	0.461499989032745
1	0.923099994659424
1	1
1	0.923099994659424
1	0.846199989318848
1	0.769200026988983
1	0.692300021648407
1	0.538500010967255
1	0.461499989032745
1	0.923099994659424
1	1
1	0.923099994659424
1	0.846199989318848
1	0.769200026988983
1	0.692300021648407
1	0.538500010967255
1	0.461499989032745
Source1	1
Source1	1
Source1	1
Source1	1
Source1	1
Source1	1
Source1	1
Source1	1
Source1	1
Source1	1
Source1	1
Source1	1
Source1	1
Source1	1
Source1	1
Source1	1
Source1	1
Source1	1
Source1	1
Source1	1
Source1	1
Source1	1
Source1	1
Source1	1
Source1	1
Source1	1
Source1	1
Source1	1
Source1	1
Source1	1
Source1	1
Source1	1
Source1	1
Source1	1
Source1	1
Source1	1
Source1	1
Source1	1
Source1	1
Source1	1
Source1	1
Source1	1
Source1	1
Source1	1
Source1	1
Source1	1
Source1	1
Source1	1
Source1	1
Source1	1
Source1	1
Source1	1

[CURVES]
;ID	X-Value	Y-Value

[CONTROLS]

[RULES]

[ENERGY]
Global Efficiency	75
Global Price	0
Demand Charge	0

[EMITTERS]
;Junction	Coefficient
10	0	;
11	0	;
12	0	;
13	0	;
14	0	;
15	0	;
16	0	;
17	0	;
18	0	;
19	0	;
2	0	;
20	0	;
3	0	;
4	0	;
5	0	;
6	0	;
7	0	;
8	0	;
9	0	;

[QUALITY]
;Node	InitQual

[SOURCES]
;Node	Type	Quality	Pattern

[REACTIONS]
Order Bulk	1
Order Tank	1
Order Wall	1
Global Bulk	0
Global Wall	0
Limiting Potential	0

[REACTIONS]
;Var	Value

[MIXING]
;Tank	Model

[TIMES]
;Var	Value
Duration	00:15
Pattern Timestep	03:00
Hydraulic Timestep	03:00
Quality Timestep	0:05
Pattern Start	09:00
Report Timestep	03:00
Report Start	09:00
Start ClockTime	09:00
Statistic	None

[REPORT]
;Var	Value
Status	No
Summary	No
Page	0

[OPTIONS]
Units	LPS
HeadLoss	D-W
Specific Gravity	1
Viscosity	1
Trials	1000
Accuracy	0.001
Unbalanced	Continue 10
Pattern	1
Demand Multiplier	1
Emitter Exponent	0.5
Quality	None mg/L
Diffusivity	1
Tolerance	0.01

[COORDINATES]
;Node	X-Coord	Y-Coord
1	1957.93	9449.84
10	2038.83	1779.94
11	3673.14	3721.68
12	3996.76	5000
13	4110.03	6569.58
14	3867.31	7847.9
15	3042.07	8883.5
16	4255.66	1731.39
17	1132.69	663.43
18	5906.15	5048.54
19	7944.98	5113.27
2	1407.77	8608.41
20	5339.81	3220.06
3	873.79	7702.27
4	809.06	6893.2
5	792.88	6019.42
6	987.05	5210.36
7	1197.41	4207.12
8	1747.57	3559.87
9	2702.27	2718.45

[VERTICES]
;Link	X-Coord	Y-Coord

[LABELS]
;X-Coord	Y-Coord	Label & Anchor Nodo

[BACKDROP]
;Var	Val1	Val2	Val3	Val4

[END]

