[TITLE]

[JUNCTIONS]
;ID	Elev	Demand	Pattern
1	65.15	0.49	 	;
10	64.17	1.11	 	;
11	63.7	1.75	 	;
12	62.64	0.91	 	;
13	61.9	1.16	 	;
14	62.6	0.54	 	;
15	63.5	1.1	 	;
16	64.3	1.21	 	;
17	65.5	1.27	 	;
18	64.1	2.02	 	;
19	62.9	1.88	 	;
2	64.4	1.04	 	;
20	62.83	0.93	 	;
21	62.8	0.96	 	;
22	63.9	0.97	 	;
23	64.2	0.86	 	;
24	67.5	0.67	 	;
25	64.4	0.77	 	;
26	63.4	1.69	 	;
27	63.9	1.42	 	;
28	65.65	0.3	 	;
29	64.5	0.62	 	;
3	63.35	1.02	 	;
30	64.1	0.54	 	;
31	64.4	0.9	 	;
32	64.2	1.03	 	;
33	64.6	0.77	 	;
34	64.7	0.74	 	;
35	65.43	1.16	 	;
36	65.9	0.47	 	;
4	62.5	0.81	 	;
5	61.24	0.63	 	;
6	65.4	0.79	 	;
7	67.9	0.26	 	;
8	66.5	0.58	 	;
9	66	0.54	 	;

[RESERVOIRS]
;ID	Head	Pattern
37	121	 	;

[TANKS]
;ID	Elevation	InitLevel	MinLevel	MaxLevel	Diameter	MinVol	VolCurve

[PIPES]
;ID	Node1	Node2	Length	Diameter	Roughness	MinorLoss	Status
1	1	17	132.76	163.6	0.0015	0	Open	;
10	8	28	144.66	257.8	0.0015	0	Open	;
11	28	9	175.72	73.6	0.0015	0	Open	;
12	9	36	112.17	257.8	0.0015	0	Open	;
13	36	1	210.74	26	0.0015	0	Open	;
14	1	31	75.41	130.8	0.0015	0	Open	;
15	31	10	181.42	368.2	0.0015	0	Open	;
16	10	11	146.96	61.4	0.0015	0	Open	;
17	11	19	162.69	204.6	0.0015	0	Open	;
18	19	12	99.64	90	0.0015	0	Open	;
19	12	4	52.98	90	0.0015	0	Open	;
2	17	2	374.68	102.2	0.0015	0	Open	;
20	2	18	162.97	40.8	0.0015	0	Open	;
21	18	10	83.96	409.2	0.0015	0	Open	;
22	10	32	49.82	90	0.0015	0	Open	;
23	32	27	78.5	368.2	0.0015	0	Open	;
24	27	16	99.27	16	0.0015	0	Open	;
25	16	25	82.29	163.6	0.0015	0	Open	;
26	25	8	147.49	20.4	0.0015	0	Open	;
27	3	11	197.32	102.2	0.0015	0	Open	;
28	11	26	83.3	368.2	0.0015	0	Open	;
29	26	15	113.8	26	0.0015	0	Open	;
3	2	3	119.74	409.2	0.0015	0	Open	;
30	15	22	80.82	409.2	0.0015	0	Open	;
31	22	7	340.97	257.8	0.0015	0	Open	;
32	5	13	77.39	147.2	0.0015	0	Open	;
33	13	14	112.37	147.2	0.0015	0	Open	;
34	14	20	37.34	409.2	0.0015	0	Open	;
35	20	15	108.85	409.2	0.0015	0	Open	;
36	15	16	182.82	147.2	0.0015	0	Open	;
37	16	29	136.02	73.6	0.0015	0	Open	;
38	29	30	56.7	290.6	0.0015	0	Open	;
39	30	9	124.08	130.8	0.0015	0	Open	;
4	3	4	312.72	409.2	0.0015	0	Open	;
40	17	18	234.6	147.2	0.0015	0	Open	;
41	12	13	203.83	26	0.0015	0	Open	;
42	19	20	248.05	327.4	0.0015	0	Open	;
43	14	21	65.19	327.4	0.0015	0	Open	;
44	21	6	210.09	32.6	0.0015	0	Open	;
45	21	22	147.57	26	0.0015	0	Open	;
46	22	23	103.8	40.8	0.0015	0	Open	;
47	24	23	210.95	20.4	0.0015	0	Open	;
48	23	25	75.08	163.6	0.0015	0	Open	;
49	26	27	180.29	368.2	0.0015	0	Open	;
5	4	5	289.09	90	0.0015	0	Open	;
50	28	29	149.05	130.8	0.0015	0	Open	;
51	29	33	215.05	51.4	0.0015	0	Open	;
52	32	33	144.44	257.8	0.0015	0	Open	;
53	33	34	34.74	368.2	0.0015	0	Open	;
54	31	34	59.93	90	0.0015	0	Open	;
55	34	35	165.67	327.4	0.0015	0	Open	;
56	30	35	119.97	290.6	0.0015	0	Open	;
57	35	36	83.17	229.2	0.0015	0	Open	;
58	37	1	1	229.2	0.0015	0	Open	;
6	5	6	336.33	290.6	0.0015	0	Open	;
7	6	7	135.81	73.6	0.0015	0	Open	;
8	7	24	201.26	229.2	0.0015	0	Open	;
9	24	8	132.53	114.6	0.0015	0	Open	;

[PUMPS]
;ID	Node1	Node2	Parameters

[VALVES]
;ID	Node1	Node2	Diameter	Type	Setting	MinorLoss

[TAGS]

[DEMANDS]
;Junction	Demand	Pattern	Category

[STATUS]
;ID	Status/Setting

[PATTERNS]
;ID	M1	M2	M3	M4	M5	M6

[CURVES]
;ID	X-Value	Y-Value

[CONTROLS]

[RULES]

[ENERGY]
Global Efficiency	75
Global Price	0
Demand Charge	0

[EMITTERS]
;Junction	Coefficient
1	0	;
10	0	;
11	0	;
12	0	;
13	0	;
14	0	;
15	0	;
16	0	;
17	0	;
18	0	;
19	0	;
2	0	;
20	0	;
21	0	;
22	0	;
23	0	;
24	0	;
25	0	;
26	0	;
27	0	;
28	0	;
29	0	;
3	0	;
30	0	;
31	0	;
32	0	;
33	0	;
34	0	;
35	0	;
36	0	;
4	0	;
5	0	;
6	0	;
7	0	;
8	0	;
9	0	;

[QUALITY]
;Node	InitQual

[SOURCES]
;Node	Type	Quality	Pattern

[REACTIONS]
Order Bulk	1
Order Tank	1
Order Wall	1
Global Bulk	0
Global Wall	0
Limiting Potential	0

[REACTIONS]
;Var	Value

[MIXING]
;Tank	Model

[TIMES]
;Var	Value
Duration	00:15
Pattern Timestep	01:00
Hydraulic Timestep	01:00
Quality Timestep	0:05
Pattern Start	00:00
Report Timestep	01:00
Report Start	00:00
Start ClockTime	00:00
Statistic	None

[REPORT]
;Var	Value
Status	No
Summary	No
Page	0

[OPTIONS]
Units	LPS
HeadLoss	D-W
Specific Gravity	1
Viscosity	1
Trials	1000
Accuracy	0.001
Unbalanced	Continue 10
Pattern	1
Demand Multiplier	1
Emitter Exponent	0.5
Quality	None mg/L
Diffusivity	1
Tolerance	0.01

[COORDINATES]
;Node	X-Coord	Y-Coord
1	7111.65	7532.36
10	5412.62	7888.35
11	4510.52	8264.56
12	3033.98	9243.53
13	2301.78	8078.48
14	2944.98	7669.9
15	3786.41	7139.97
16	4830.1	6480.58
17	7099.51	8438.51
18	5505.66	8450.65
19	3563.92	8839
2	5679.61	9538.83
20	3167.48	7532.36
21	2730.58	7285.6
22	3511.33	6666.67
23	4097.9	6286.41
24	3337.38	5121.36
25	4530.74	6011.33
26	4215.21	7783.17
27	5194.17	7055.02
28	5218.45	5089
29	5622.98	5999.19
3	4862.46	9538.83
30	5950.65	5796.93
31	6614.08	7621.36
32	5380.26	7544.5
33	6318.77	7281.55
34	6549.35	7212.78
35	6585.76	6092.23
36	7152.1	6104.37
37	7669.9	7783.17
4	2750.81	9474.11
5	1852.75	8357.61
6	1974.11	6076.05
7	1974.11	5149.68
8	4235.44	5076.86
9	6411.81	5093.04

[VERTICES]
;Link	X-Coord	Y-Coord
2	7103.56	9555.02
5	2030.74	9579.29
12	7168.28	5097.09
16	5008.09	7953.07
26	4328.48	5687.7
26	4247.57	5404.53
26	4239.48	5234.63
27	4757.28	8745.96
27	4700.65	8592.23
31	2605.18	5275.08
39	6043.69	5687.7
39	6092.23	5614.89
42	3284.79	8402.1
42	3596.28	8199.84
47	3713.59	5788.83
47	3798.54	5792.88
50	5279.13	5404.53
56	6112.46	6100.32
13	7111.65	7500

[LABELS]
;X-Coord	Y-Coord	Label & Anchor Nodo

[BACKDROP]
;Var	Val1	Val2	Val3	Val4

[END]

