[TITLE]

[JUNCTIONS]
;ID	Elev	Demand	Pattern
1	24.9	0	 	;
10	17.6	3.87	 	;
11	17.8	17.5	 	;
12	22.9	10.43	 	;
13	14.1	9.87	 	;
14	17.4	11.05	 	;
15	19.4	26.27	 	;
16	17.1	14.53	 	;
17	19.9	17.66	 	;
18	20.6	17.33	 	;
19	36.4	8.29	 	;
2	29.9	48.97	 	;
20	23.5	79.86	 	;
21	26.3	115.74	 	;
22	34.3	7.36	 	;
23	20.8	9.36	 	;
24	26.3	23.95	 	;
25	15.4	20.38	 	;
26	11.4	26.38	 	;
27	11.4	20.78	 	;
28	11.1	22.78	 	;
29	10.5	34.56	 	;
3	31.4	37.7	 	;
30	11.6	24.05	 	;
31	25.2	18.37	 	;
32	12.9	47.28	 	;
33	12.9	54.41	 	;
34	18.2	0	 	;
35	25.2	7.72	 	;
4	40.77	52.41	 	;
5	24.3	20.65	 	;
6	28	231.75	 	;
7	22.4	65.66	 	;
8	31.4	29.12	 	;
9	21.9	9.95	 	;

[RESERVOIRS]
;ID	Head	Pattern
99	58	 	;

[TANKS]
;ID	Elevation	InitLevel	MinLevel	MaxLevel	Diameter	MinVol	VolCurve

[PIPES]
;ID	Node1	Node2	Length	Diameter	Roughness	MinorLoss	Status
1	99	1	200	1000	0.0015	0	Open	;
10	3	4	370	700	0.0015	0	Open	;
11	3	5	470	700	0.0015	0	Open	;
12	4	5	380	900	0.0015	0	Open	;
13	4	6	410	700	0.0015	0	Open	;
14	6	7	540	400	0.0015	0	Open	;
15	7	8	170	400	0.0015	0	Open	;
16	9	8	390	1000	0.0015	0	Open	;
17	5	9	510	350	0.0015	0	Open	;
18	9	10	600	1000	0.0015	0	Open	;
19	7	11	530	800	0.0015	0	Open	;
2	1	2	470	1000	0.0015	0	Open	;
20	11	16	130	1000	0.0015	0	Open	;
21	11	12	530	300	0.0015	0	Open	;
22	10	15	560	600	0.0015	0	Open	;
23	15	14	440	800	0.0015	0	Open	;
24	12	14	160	450	0.0015	0	Open	;
25	12	13	350	600	0.0015	0	Open	;
26	16	13	170	1100	0.0015	0	Open	;
27	16	19	350	500	0.0015	0	Open	;
28	19	20	590	350	0.0015	0	Open	;
29	19	18	400	1100	0.0015	0	Open	;
3	2	3	80	700	0.0015	0	Open	;
30	16	17	470	800	0.0015	0	Open	;
31	13	27	350	700	0.0015	0	Open	;
32	27	14	540	400	0.0015	0	Open	;
33	27	26	230	350	0.0015	0	Open	;
34	25	26	270	1000	0.0015	0	Open	;
35	26	28	400	300	0.0015	0	Open	;
36	15	28	620	800	0.0015	0	Open	;
37	26	29	600	450	0.0015	0	Open	;
38	30	29	350	800	0.0015	0	Open	;
39	25	30	540	350	0.0015	0	Open	;
4	3	4	370	900	0.0015	0	Open	;
40	30	35	370	450	0.0015	0	Open	;
41	17	25	90	700	0.0015	0	Open	;
42	25	31	540	450	0.0015	0	Open	;
43	17	18	220	300	0.0015	0	Open	;
44	18	24	390	700	0.0015	0	Open	;
45	24	23	400	800	0.0015	0	Open	;
46	20	24	560	400	0.0015	0	Open	;
47	11	20	900	900	0.0015	0	Open	;
48	20	21	310	500	0.0015	0	Open	;
49	21	23	300	350	0.0015	0	Open	;
5	4	6	410	350	0.0015	0	Open	;
50	20	23	510	700	0.0015	0	Open	;
51	15	22	250	900	0.0015	0	Open	;
52	23	32	350	700	0.0015	0	Open	;
53	31	32	380	300	0.0015	0	Open	;
54	32	33	690	600	0.0015	0	Open	;
55	31	35	670	1100	0.0015	0	Open	;
56	33	34	870	500	0.0015	0	Open	;
57	35	34	620	900	0.0015	0	Open	;
58	29	22	580	700	0.0015	0	Open	;
6	6	7	540	600	0.0015	0	Open	;
7	7	11	530	400	0.0015	0	Open	;
8	11	16	130	350	0.0015	0	Open	;
9	16	17	470	900	0.0015	0	Open	;

[PUMPS]
;ID	Node1	Node2	Parameters

[VALVES]
;ID	Node1	Node2	Diameter	Type	Setting	MinorLoss

[TAGS]

[DEMANDS]
;Junction	Demand	Pattern	Category

[STATUS]
;ID	Status/Setting

[PATTERNS]
;ID	M1	M2	M3	M4	M5	M6

[CURVES]
;ID	X-Value	Y-Value

[CONTROLS]

[RULES]

[ENERGY]
Global Efficiency	75
Global Price	0
Demand Charge	0

[EMITTERS]
;Junction	Coefficient
1	0	;
10	0	;
11	0	;
12	0	;
13	0	;
14	0	;
15	0	;
16	0	;
17	0	;
18	0	;
19	0	;
2	0	;
20	0	;
21	0	;
22	0	;
23	0	;
24	0	;
25	0	;
26	0	;
27	0	;
28	0	;
29	0	;
3	0	;
30	0	;
31	0	;
32	0	;
33	0	;
34	0	;
35	0	;
4	0	;
5	0	;
6	0	;
7	0	;
8	0	;
9	0	;

[QUALITY]
;Node	InitQual

[SOURCES]
;Node	Type	Quality	Pattern

[REACTIONS]
Order Bulk	1
Order Tank	1
Order Wall	1
Global Bulk	0
Global Wall	0
Limiting Potential	0

[REACTIONS]
;Var	Value

[MIXING]
;Tank	Model

[TIMES]
;Var	Value
Duration	00:15
Pattern Timestep	01:00
Hydraulic Timestep	01:00
Quality Timestep	0:05
Pattern Start	12:00
Report Timestep	01:00
Report Start	12:00
Start ClockTime	12:00
Statistic	None

[REPORT]
;Var	Value
Status	No
Summary	No
Page	0

[OPTIONS]
Units	LPS
HeadLoss	D-W
Specific Gravity	1
Viscosity	1
Trials	1000
Accuracy	0.001
Unbalanced	Continue 10
Pattern	1
Demand Multiplier	1
Emitter Exponent	0.5
Quality	None mg/L
Diffusivity	1
Tolerance	0.01

[COORDINATES]
;Node	X-Coord	Y-Coord
1	-2260.03	6736.47
10	-916.23	4258.29
11	3289.7	6684.12
12	3254.8	5549.74
13	4755.67	5479.93
14	3237.35	4171.03
15	1003.49	2739.97
16	4755.67	6684.12
17	6134.38	6614.31
18	6169.28	7748.69
19	4703.32	7748.69
2	-2260.03	7905.76
20	4685.86	8883.07
21	6221.64	9685.86
22	986.04	1553.23
23	7757.42	8917.98
24	7739.97	7731.24
25	6099.48	5427.57
26	6134.38	4240.84
27	4703.32	4153.58
28	3184.99	2670.16
29	6134.38	1535.78
3	-881.33	7923.21
30	7757.42	4258.29
31	7739.97	5532.29
32	9450.26	7766.14
33	11090.75	7766.14
34	11125.65	5532.29
35	9380.45	5479.93
4	514.83	7888.31
5	-951.13	6736.47
6	1806.28	7853.4
7	1771.38	6684.12
8	1806.28	5619.55
9	-898.78	5532.29
99	-2277.49	5479.93

[VERTICES]
;Link	X-Coord	Y-Coord

[LABELS]
;X-Coord	Y-Coord	Label & Anchor Nodo

[BACKDROP]
;Var	Val1	Val2	Val3	Val4

[END]

