[TITLE]

[JUNCTIONS]
;ID	Elev	Demand	Pattern
1	955	0.145	 	;
10	945	0.052	 	;
100	956.84	0.022	 	;
101	956.638	0.08	 	;
102	956.567	0.018	 	;
103	955.768	0.128	 	;
104	955	0.09	 	;
105	955.174	0	 	;
106	955	0.016	 	;
107	955	0.029	 	;
108	951.998	0.02	 	;
109	945.213	0.123	 	;
11	944.24	0	 	;
110	945.138	0.049	 	;
111	945	0.036	 	;
112	945.892	0.029	 	;
113	946.648	0.049	 	;
114	945	0.031	 	;
115	948.093	0.012	 	;
116	948.867	0.085	 	;
117	955	0.074	 	;
118	952.324	0.079	 	;
119	950	0.109	 	;
12	943.781	0.005	 	;
120	950.121	0.065	 	;
121	950.049	0.103	 	;
122	950.016	0.139	 	;
123	946.03	0.018	 	;
124	950.142	0.039	 	;
125	955	0.041	 	;
126	953.669	0.338	 	;
127	950.668	0.11	 	;
128	950.368	0.057	 	;
129	949.494	0.01	 	;
13	925	0.054	 	;
130	946.508	0.123	 	;
131	947.665	0.027	 	;
132	945	0.014	 	;
133	949.494	0.05	 	;
134	949.68	0.083	 	;
135	949.167	0.041	 	;
136	946.886	0.056	 	;
137	947.006	0.019	 	;
138	947.588	0.128	 	;
139	947.525	0.039	 	;
14	918.53	0	 	;
140	951.682	0.051	 	;
141	951.073	0.146	 	;
142	953.973	0.028	 	;
143	956.137	0.03	 	;
144	955	0.029	 	;
145	955.846	0	 	;
146	951.963	0.069	 	;
147	953.873	0.122	 	;
148	955	0.047	 	;
149	955.916	0.019	 	;
15	920.692	0.019	 	;
150	955.432	0.006	 	;
151	955.927	0.052	 	;
152	952.145	0	 	;
153	953.662	0.06	 	;
154	955.008	0.037	 	;
155	955.276	0	 	;
156	955.111	0	 	;
157	955.201	0	 	;
158	955	0.036	 	;
159	955.334	0.037	 	;
16	925	0.089	 	;
160	955.549	0.017	 	;
161	952.909	0.061	 	;
162	951.671	0.093	 	;
163	952.805	0.077	 	;
164	952.692	0.048	 	;
165	950.831	0.139	 	;
166	950.052	0.026	 	;
167	951.579	0.073	 	;
168	953.958	0.072	 	;
169	953.353	0.031	 	;
17	921.042	0.102	 	;
170	955.898	0	 	;
171	950	0.237	 	;
172	950.852	0.049	 	;
173	947.964	0.068	 	;
174	950	0.021	 	;
175	950.195	0.062	 	;
176	950	0.046	 	;
177	950.037	0.054	 	;
178	950.001	0.038	 	;
179	945.022	0.089	 	;
18	920.658	0.067	 	;
180	949.081	0.021	 	;
181	949.134	0.007	 	;
182	945.798	0.052	 	;
183	948.664	0.044	 	;
184	946.038	0	 	;
185	947.622	0.025	 	;
186	948.026	0.026	 	;
187	950.203	0.017	 	;
188	952.534	0.202	 	;
189	950.201	0.032	 	;
19	920	0.081	 	;
190	952.571	0	 	;
191	952.533	0	 	;
192	951.372	0.057	 	;
193	952.169	0.02	 	;
194	952.181	0.019	 	;
195	950	0.033	 	;
196	950.241	0	 	;
197	951.966	0	 	;
198	955	0.008	 	;
199	955	0	 	;
2	960	0.437	 	;
20	920	0.029	 	;
200	955	0	 	;
201	949.397	0.026	 	;
202	954.957	0.036	 	;
203	953.402	0.059	 	;
204	949.18	0.054	 	;
205	950.107	0.03	 	;
206	941.072	0.008	 	;
207	942.168	0.007	 	;
208	943.384	0.009	 	;
209	943.391	0.024	 	;
21	919.003	0.033	 	;
210	945	0.059	 	;
211	940.305	0.076	 	;
212	939.971	0.172	 	;
213	941.95	0.058	 	;
214	940.675	0.088	 	;
215	943.87	0.055	 	;
216	942.646	0.104	 	;
217	942.357	0.045	 	;
218	942.74	0.125	 	;
219	943.833	0.136	 	;
22	917.995	0	 	;
220	943.575	0.052	 	;
221	943.399	0.036	 	;
222	941.053	0.03	 	;
223	942.615	0.053	 	;
224	942.407	0.07	 	;
225	943.796	0.009	 	;
226	942.496	0.024	 	;
227	943.658	0.027	 	;
228	942.059	0.089	 	;
229	941.693	0.031	 	;
23	919.659	0.243	 	;
230	943.097	0.024	 	;
231	942.974	0.022	 	;
232	941.734	0.058	 	;
233	939.504	0.008	 	;
234	940	0.027	 	;
235	940	0.006	 	;
236	940.031	0.017	 	;
237	939.655	0.089	 	;
238	939.638	0	 	;
239	943.339	0.013	 	;
24	919.945	0.158	 	;
240	944.813	0.035	 	;
241	945	0.057	 	;
242	944.126	0.004	 	;
243	945	0.029	 	;
244	945	0.012	 	;
245	944.921	0.027	 	;
246	944.835	0.012	 	;
247	944.81	0.057	 	;
248	952.62	0.052	 	;
249	943.218	0.024	 	;
25	920.642	0.004	 	;
250	943.342	0.008	 	;
251	943.248	0	 	;
252	939.831	0.002	 	;
253	939.783	0.037	 	;
254	955	0	 	;
255	956.423	0	 	;
256	958.35	0	 	;
257	956.384	0.013	 	;
258	957.339	0	 	;
259	957.939	0	 	;
26	920.1	0	 	;
260	955.281	0.056	 	;
261	955	0.038	 	;
262	955	0.082	 	;
263	955.779	0.07	 	;
264	955.836	0	 	;
265	955.89	0	 	;
266	955.332	0	 	;
267	955.039	0.006	 	;
268	955	0.17	 	;
269	955	0.165	 	;
27	917.092	0.071	 	;
270	955	0.035	 	;
271	955	0.025	 	;
272	955.089	0.101	 	;
273	955.748	0.137	 	;
274	925	0.037	 	;
275	935.24	0	 	;
276	940	0.004	 	;
277	935.141	0	 	;
278	935.406	0.043	 	;
279	935.347	0.086	 	;
28	920.007	0	 	;
280	935	0.232	 	;
282	955.864	0	 	;
283	953.294	0.045	 	;
284	948.797	0.039	 	;
285	955	0.006	 	;
286	955	0.313	 	;
287	954.709	0.019	 	;
288	952.756	0	 	;
289	950.634	0.019	 	;
29	914.956	0	 	;
290	948.68	0.024	 	;
291	949.045	0.031	 	;
292	945.842	0.015	 	;
293	946.647	0.049	 	;
294	955.139	0.023	 	;
295	955.851	0.03	 	;
296	943.061	0.054	 	;
297	936.286	0.012	 	;
298	940.106	0.022	 	;
299	951.11	0.127	 	;
3	955	0.038	 	;
30	930.468	0.178	 	;
300	950	0.04	 	;
301	955.141	0.097	 	;
302	950	0.014	 	;
303	944.653	0	 	;
304	945	0	 	;
305	944.031	0	 	;
306	911.137	0	 	;
307	919.553	0.01	 	;
308	920.659	0.009	 	;
309	914.88	0	 	;
31	940.106	0.011	 	;
310	940.106	0.002	 	;
311	931.622	0.02	 	;
312	939.432	0.095	 	;
313	905	0	 	;
314	905	0	 	;
315	908.174	0	 	;
316	908.009	0	 	;
317	918.602	0.007	 	;
318	915.122	0.062	 	;
319	955	0.086	 	;
32	940.106	0.005	 	;
320	955	0	 	;
321	984.592	0	 	;
322	959.272	0.244	 	;
323	968.209	0	 	;
324	955.266	0.043	 	;
325	962.346	0	 	;
326	955.847	0	 	;
327	953.574	0.052	 	;
328	947.899	0.078	 	;
329	945.481	0.052	 	;
33	940.106	0	 	;
330	948.599	0.089	 	;
331	947.551	0	 	;
332	956.348	0.071	 	;
333	955	0.064	 	;
334	955.257	0	 	;
335	955.491	0.004	 	;
336	955	0.017	 	;
337	952.714	0	 	;
338	950.051	0	 	;
339	950	0	 	;
34	940.106	0.056	 	;
340	945.977	0	 	;
341	950.823	0.045	 	;
342	950.241	0	 	;
343	950.49	0.108	 	;
344	952.627	0.033	 	;
345	955	0.016	 	;
346	955	0.009	 	;
347	950.368	0.011	 	;
348	953.372	0.005	 	;
349	942.87	0.025	 	;
35	935.173	0	 	;
350	940	0.046	 	;
351	940	0.062	 	;
352	943.06	0.108	 	;
353	945.048	0	 	;
354	941.131	0.012	 	;
355	942.538	0.045	 	;
356	940.074	0	 	;
357	955	0.021	 	;
358	956.952	0	 	;
359	935.49	0	 	;
36	935.131	0.005	 	;
360	955	0.018	 	;
361	950	0.031	 	;
362	919.345	0	 	;
363	955.139	0	 	;
364	919.003	0.253	 	;
37	934.922	0.013	 	;
38	937.058	0.189	 	;
39	940.106	0.061	 	;
4	960	0.099	 	;
40	937.594	0	 	;
41	907.373	0	 	;
42	909.978	0	 	;
43	905	0	 	;
44	905.02	0	 	;
45	905.002	0	 	;
46	907.696	0	 	;
47	907.876	0	 	;
48	905.048	0	 	;
49	910	0	 	;
5	960	0	 	;
50	905	0	 	;
51	905	0	 	;
52	910	0	 	;
53	905.751	0	 	;
54	908.055	0	 	;
55	910	0	 	;
56	905.319	0	 	;
57	906.454	0	 	;
58	913.013	0	 	;
59	914.126	0	 	;
6	960	0.057	 	;
60	907.032	0	 	;
61	906.724	0	 	;
62	907.122	0	 	;
63	920.007	0	 	;
64	919.424	0.071	 	;
65	955	0.027	 	;
66	955	0.045	 	;
67	955	0.109	 	;
68	959.163	0.046	 	;
69	959.622	0.028	 	;
7	950	0.085	 	;
70	955	0.026	 	;
71	965	0	 	;
72	935	0.089	 	;
73	943.958	0.028	 	;
74	959.208	0.663	 	;
75	955	0.09	 	;
76	955	0.073	 	;
77	955	0.096	 	;
78	961.559	0.006	 	;
79	955	0.149	 	;
8	950	0.076	 	;
80	956.394	0.136	 	;
81	955	0.061	 	;
82	955.441	0.131	 	;
83	955	0.095	 	;
84	955	0.066	 	;
85	955	0.07	 	;
86	955	0.072	 	;
87	957.632	0.09	 	;
88	959.504	0	 	;
89	957.702	0.135	 	;
9	944.331	0.008	 	;
90	959.336	0.036	 	;
91	958.697	0.09	 	;
92	959.254	0	 	;
93	956.402	0.078	 	;
94	957.336	0.068	 	;
95	957.414	0.008	 	;
96	958.052	0.023	 	;
97	955.149	0.028	 	;
98	956.535	0.05	 	;
99	955.053	0.056	 	;

[RESERVOIRS]
;ID	Head	Pattern
281	991.7	 	;

[TANKS]
;ID	Elevation	InitLevel	MinLevel	MaxLevel	Diameter	MinVol	VolCurve

[PIPES]
;ID	Node1	Node2	Length	Diameter	Roughness	MinorLoss	Status
1	4	6	132.09	76.2	0.0015	0	Open	;
10	8	302	7.408	76.2	0.0015	0	Open	;
100	83	67	95.592	76.2	0.0015	0	Open	;
101	84	70	48.134	76.2	0.0015	0	Open	;
102	70	83	10.421	76.2	0.0015	0	Open	;
103	76	86	60.078	76.2	0.0015	0	Open	;
104	67	76	77.107	76.2	0.0015	0	Open	;
105	79	85	22.736	76.2	0.0015	0	Open	;
106	85	67	63.973	76.2	0.0015	0	Open	;
107	86	65	25.623	76.2	0.0015	0	Open	;
108	87	91	96.789	76.2	0.0015	0	Open	;
109	80	89	93.109	76.2	0.0015	0	Open	;
11	9	303	30.002	76.2	0.0015	0	Open	;
110	88	78	72.273	76.2	0.0015	0	Open	;
111	89	90	117.149	76.2	0.0015	0	Open	;
112	90	88	21.201	76.2	0.0015	0	Open	;
113	89	91	55.726	76.2	0.0015	0	Open	;
114	68	92	22.545	76.2	0.0015	0	Open	;
115	91	68	51.643	76.2	0.0015	0	Open	;
116	92	325	41.395	76.2	0.0015	0	Open	;
117	93	82	81.536	76.2	0.0015	0	Open	;
118	94	98	71.221	76.2	0.0015	0	Open	;
119	95	94	8.899	76.2	0.0015	0	Open	;
12	10	304	33.555	76.2	0.0015	0	Open	;
120	96	95	73.207	76.2	0.0015	0	Open	;
121	87	80	61.932	76.2	0.0015	0	Open	;
122	87	98	90.091	101.6	0.0015	0	Open	;
123	97	80	86.324	76.2	0.0015	0	Open	;
124	98	93	10.357	76.2	0.0015	0	Open	;
125	97	81	23.652	76.2	0.0015	0	Open	;
126	98	97	71.955	76.2	0.0015	0	Open	;
127	99	97	7.356	76.2	0.0015	0	Open	;
128	94	101	81.733	76.2	0.0015	0	Open	;
129	100	101	41.361	76.2	0.0015	0	Open	;
13	11	9	6.764	76.2	0.0015	0	Open	;
130	101	151	77.88	76.2	0.0015	0	Open	;
131	101	102	10.098	76.2	0.0015	0	Open	;
132	102	82	67.266	76.2	0.0015	0	Open	;
133	103	326	13.318	76.2	0.0015	0	Open	;
134	82	77	77.699	101.6	0.0015	0	Open	;
135	77	103	65.679	76.2	0.0015	0	Open	;
136	104	267	85	76.2	0.0015	0	Open	;
137	105	198	85	76.2	0.0015	0	Open	;
138	106	266	85.001	76.2	0.0015	0	Open	;
139	107	202	48.897	76.2	0.0015	0	Open	;
14	9	305	28.001	76.2	0.0015	0	Open	;
140	108	327	88.739	76.2	0.0015	0	Open	;
141	109	138	99.593	76.2	0.0015	0	Open	;
142	110	109	104.424	76.2	0.0015	0	Open	;
143	111	110	10.641	76.2	0.0015	0	Open	;
144	112	245	95.56	76.2	0.0015	0	Open	;
145	113	210	97.969	76.2	0.0015	0	Open	;
146	114	179	94.905	76.2	0.0015	0	Open	;
147	115	186	6.641	76.2	0.0015	0	Open	;
148	116	181	79.721	76.2	0.0015	0	Open	;
149	117	75	83.489	101.6	0.0015	0	Open	;
15	12	11	34.241	76.2	0.0015	0	Open	;
150	118	127	80.102	76.2	0.0015	0	Open	;
151	119	121	91.481	76.2	0.0015	0	Open	;
152	120	162	82.177	76.2	0.0015	0	Open	;
153	121	122	98.683	76.2	0.0015	0	Open	;
154	122	178	80.732	76.2	0.0015	0	Open	;
155	123	113	77.296	76.2	0.0015	0	Open	;
156	124	128	78.675	76.2	0.0015	0	Open	;
157	75	125	24.841	76.2	0.0015	0	Open	;
158	125	126	64.522	76.2	0.0015	0	Open	;
159	126	2	669.325	76.2	0.0015	0	Open	;
16	13	280	536.985	76.2	0.0015	0	Open	;
160	127	75	96.474	76.2	0.0015	0	Open	;
161	128	127	10.734	76.2	0.0015	0	Open	;
162	129	328	35.344	76.2	0.0015	0	Open	;
163	120	124	12.111	76.2	0.0015	0	Open	;
164	119	120	89.186	76.2	0.0015	0	Open	;
165	130	136	99.827	76.2	0.0015	0	Open	;
166	131	130	85.568	76.2	0.0015	0	Open	;
167	132	110	21.208	76.2	0.0015	0	Open	;
168	110	130	96.677	76.2	0.0015	0	Open	;
169	130	329	45.643	76.2	0.0015	0	Open	;
17	14	63	223.312	76.2	0.0015	0	Open	;
170	133	134	9.343	76.2	0.0015	0	Open	;
171	134	116	99.898	76.2	0.0015	0	Open	;
172	122	116	91.136	76.2	0.0015	0	Open	;
173	7	122	98.934	76.2	0.0015	0	Open	;
174	134	7	94.234	76.2	0.0015	0	Open	;
175	135	134	15.387	76.2	0.0015	0	Open	;
176	136	135	69.102	76.2	0.0015	0	Open	;
177	137	136	9.2	76.2	0.0015	0	Open	;
178	116	330	9.491	76.2	0.0015	0	Open	;
179	113	293	3.774	76.2	0.0015	0	Open	;
18	15	18	17.096	76.2	0.0015	0	Open	;
180	131	331	4.825	76.2	0.0015	0	Open	;
181	138	133	90.048	76.2	0.0015	0	Open	;
182	139	138	10.273	76.2	0.0015	0	Open	;
183	138	131	9.631	76.2	0.0015	0	Open	;
184	140	175	57.355	76.2	0.0015	0	Open	;
185	121	177	60.508	76.2	0.0015	0	Open	;
186	141	169	86.598	101.6	0.0015	0	Open	;
187	142	193	121.539	76.2	0.0015	0	Open	;
188	143	332	50.392	76.2	0.0015	0	Open	;
189	144	333	49.007	76.2	0.0015	0	Open	;
19	16	306	1372.194	76.2	0.0015	0	Open	;
190	145	160	80	152.4	0.0015	0	Open	;
191	146	162	80.153	76.2	0.0015	0	Open	;
192	147	163	101.142	76.2	0.0015	0	Open	;
193	144	148	27.254	101.6	0.0015	0	Open	;
194	148	147	87.248	76.2	0.0015	0	Open	;
195	149	143	46.129	76.2	0.0015	0	Open	;
196	150	159	21.604	101.6	0.0015	0	Open	;
197	151	295	12.583	101.6	0.0015	0	Open	;
198	117	118	87.14	76.2	0.0015	0	Open	;
199	118	152	10.019	76.2	0.0015	0	Open	;
2	1	299	178.841	76.2	0.0015	0	Open	;
20	17	274	157.639	76.2	0.0015	0	Open	;
200	152	146	10.307	76.2	0.0015	0	Open	;
201	153	118	72.433	76.2	0.0015	0	Open	;
202	154	147	66.865	152.4	0.0015	0	Open	;
203	155	157	8.271	76.2	0.0015	0	Open	;
204	156	154	11.39	152.4	0.0015	0	Open	;
205	157	156	9.854	76.2	0.0015	0	Open	;
206	158	117	68.598	76.2	0.0015	0	Open	;
207	156	158	11.463	76.2	0.0015	0	Open	;
208	147	153	11.614	76.2	0.0015	0	Open	;
209	159	363	34.017	152.4	0.0015	0	Open	;
21	18	17	62.322	76.2	0.0015	0	Open	;
210	155	334	2.968	76.2	0.0015	0	Open	;
211	143	335	74.314	76.2	0.0015	0	Open	;
212	148	336	6.553	76.2	0.0015	0	Open	;
213	160	150	31.296	152.4	0.0015	0	Open	;
214	161	168	91.717	76.2	0.0015	0	Open	;
215	140	167	10.959	76.2	0.0015	0	Open	;
216	162	164	76.968	76.2	0.0015	0	Open	;
217	162	165	38.701	76.2	0.0015	0	Open	;
218	163	140	43.237	76.2	0.0015	0	Open	;
219	161	337	7.412	76.2	0.0015	0	Open	;
22	19	20	49.884	76.2	0.0015	0	Open	;
220	163	161	9.786	76.2	0.0015	0	Open	;
221	164	163	10.551	76.2	0.0015	0	Open	;
222	165	166	47.005	76.2	0.0015	0	Open	;
223	166	121	9.63	76.2	0.0015	0	Open	;
224	166	338	7.408	76.2	0.0015	0	Open	;
225	167	165	80.094	76.2	0.0015	0	Open	;
226	168	144	73.617	152.4	0.0015	0	Open	;
227	169	142	23.021	76.2	0.0015	0	Open	;
228	169	168	20.764	101.6	0.0015	0	Open	;
229	141	192	76.095	76.2	0.0015	0	Open	;
23	20	21	78.49	76.2	0.0015	0	Open	;
230	171	188	177.029	76.2	0.0015	0	Open	;
231	172	289	11.477	76.2	0.0015	0	Open	;
232	173	204	75.597	76.2	0.0015	0	Open	;
233	173	171	86.302	76.2	0.0015	0	Open	;
234	174	180	76.541	76.2	0.0015	0	Open	;
235	175	141	96.991	76.2	0.0015	0	Open	;
236	176	171	94.268	76.2	0.0015	0	Open	;
237	175	176	104.326	76.2	0.0015	0	Open	;
238	177	175	33.032	76.2	0.0015	0	Open	;
239	178	176	12.02	76.2	0.0015	0	Open	;
24	21	307	10.644	76.2	0.0015	0	Open	;
240	176	174	9.444	76.2	0.0015	0	Open	;
241	174	339	7.409	76.2	0.0015	0	Open	;
242	171	141	105.65	76.2	0.0015	0	Open	;
243	179	182	77.552	76.2	0.0015	0	Open	;
244	180	290	27.105	76.2	0.0015	0	Open	;
245	181	180	18.819	76.2	0.0015	0	Open	;
246	182	292	4.895	76.2	0.0015	0	Open	;
247	182	340	11.546	76.2	0.0015	0	Open	;
248	112	123	14.952	76.2	0.0015	0	Open	;
249	180	183	11.436	76.2	0.0015	0	Open	;
25	22	14	54.555	76.2	0.0015	0	Open	;
250	183	292	94.927	76.2	0.0015	0	Open	;
251	184	112	9.095	76.2	0.0015	0	Open	;
252	179	185	99.062	76.2	0.0015	0	Open	;
253	185	173	11.108	76.2	0.0015	0	Open	;
254	186	179	95.306	76.2	0.0015	0	Open	;
255	187	341	61.614	76.2	0.0015	0	Open	;
256	188	172	103.052	76.2	0.0015	0	Open	;
257	188	288	9.798	76.2	0.0015	0	Open	;
258	189	342	9.032	76.2	0.0015	0	Open	;
259	190	200	77.539	76.2	0.0015	0	Open	;
26	23	24	115.55	76.2	0.0015	0	Open	;
260	191	190	2	76.2	0.0015	0	Open	;
261	192	343	62.061	76.2	0.0015	0	Open	;
262	193	197	7.094	76.2	0.0015	0	Open	;
263	192	197	25.701	76.2	0.0015	0	Open	;
264	194	191	10.006	76.2	0.0015	0	Open	;
265	194	344	76.678	76.2	0.0015	0	Open	;
266	195	196	14.203	76.2	0.0015	0	Open	;
267	196	341	25.736	76.2	0.0015	0	Open	;
268	197	194	12.983	76.2	0.0015	0	Open	;
269	198	104	29.999	76.2	0.0015	0	Open	;
27	24	26	60.159	76.2	0.0015	0	Open	;
270	199	345	41	76.2	0.0015	0	Open	;
271	200	346	30	76.2	0.0015	0	Open	;
272	106	198	35	76.2	0.0015	0	Open	;
273	200	199	7.996	76.2	0.0015	0	Open	;
274	199	106	32.5	76.2	0.0015	0	Open	;
275	201	189	52	76.2	0.0015	0	Open	;
276	202	108	98.802	76.2	0.0015	0	Open	;
277	189	347	7.41	76.2	0.0015	0	Open	;
278	203	287	50.222	76.2	0.0015	0	Open	;
279	203	348	7.409	76.2	0.0015	0	Open	;
28	25	15	40.236	76.2	0.0015	0	Open	;
280	204	201	9.863	76.2	0.0015	0	Open	;
281	205	187	8.847	76.2	0.0015	0	Open	;
282	204	205	25.954	76.2	0.0015	0	Open	;
283	205	172	39.973	76.2	0.0015	0	Open	;
284	206	237	95.925	76.2	0.0015	0	Open	;
285	207	239	65.457	76.2	0.0015	0	Open	;
286	208	230	81.494	76.2	0.0015	0	Open	;
287	209	230	93.177	76.2	0.0015	0	Open	;
288	209	349	51.713	76.2	0.0015	0	Open	;
289	210	246	83.845	76.2	0.0015	0	Open	;
29	15	308	2.242	76.2	0.0015	0	Open	;
290	211	217	87.186	76.2	0.0015	0	Open	;
291	212	229	109.932	76.2	0.0015	0	Open	;
292	213	237	126.894	76.2	0.0015	0	Open	;
293	214	350	83.367	76.2	0.0015	0	Open	;
294	215	219	64.945	76.2	0.0015	0	Open	;
295	216	218	117.739	76.2	0.0015	0	Open	;
296	217	229	117.502	76.2	0.0015	0	Open	;
297	218	351	61.605	76.2	0.0015	0	Open	;
298	219	352	89.274	76.2	0.0015	0	Open	;
299	218	221	86.97	76.2	0.0015	0	Open	;
3	2	3	158.79	76.2	0.0015	0	Open	;
30	26	25	47.238	76.2	0.0015	0	Open	;
300	219	220	48.056	76.2	0.0015	0	Open	;
301	220	111	85.568	76.2	0.0015	0	Open	;
302	111	353	7.408	76.2	0.0015	0	Open	;
303	220	354	59.598	76.2	0.0015	0	Open	;
304	221	220	10.687	76.2	0.0015	0	Open	;
305	222	217	31.11	76.2	0.0015	0	Open	;
306	217	218	111.325	76.2	0.0015	0	Open	;
307	223	225	94.442	76.2	0.0015	0	Open	;
308	216	227	87.369	76.2	0.0015	0	Open	;
309	224	228	86.758	76.2	0.0015	0	Open	;
31	27	22	83.697	76.2	0.0015	0	Open	;
310	225	355	100.264	76.2	0.0015	0	Open	;
311	226	215	111.765	76.2	0.0015	0	Open	;
312	109	210	107.564	76.2	0.0015	0	Open	;
313	215	109	93.556	76.2	0.0015	0	Open	;
314	227	215	11	76.2	0.0015	0	Open	;
315	210	226	102.462	76.2	0.0015	0	Open	;
316	226	224	8.977	76.2	0.0015	0	Open	;
317	228	223	108.267	76.2	0.0015	0	Open	;
318	229	214	116.461	76.2	0.0015	0	Open	;
319	223	216	6.041	76.2	0.0015	0	Open	;
32	28	29	296.795	76.2	0.0015	0	Open	;
320	229	216	91.297	76.2	0.0015	0	Open	;
321	213	207	11.847	76.2	0.0015	0	Open	;
322	230	213	62.866	76.2	0.0015	0	Open	;
323	231	228	76.457	76.2	0.0015	0	Open	;
324	228	214	73.63	76.2	0.0015	0	Open	;
325	214	232	74.696	76.2	0.0015	0	Open	;
326	232	213	11.65	76.2	0.0015	0	Open	;
327	230	231	10.786	76.2	0.0015	0	Open	;
328	233	212	119.628	76.2	0.0015	0	Open	;
329	234	235	9.577	76.2	0.0015	0	Open	;
33	29	309	90.951	76.2	0.0015	0	Open	;
330	235	211	11.404	76.2	0.0015	0	Open	;
331	212	236	10.027	76.2	0.0015	0	Open	;
332	236	235	106.818	76.2	0.0015	0	Open	;
333	236	356	2.302	76.2	0.0015	0	Open	;
334	237	238	11.08	76.2	0.0015	0	Open	;
335	238	233	71.749	76.2	0.0015	0	Open	;
336	239	296	58.969	76.2	0.0015	0	Open	;
337	240	250	74.702	76.2	0.0015	0	Open	;
338	208	250	42.328	76.2	0.0015	0	Open	;
339	115	241	103.376	76.2	0.0015	0	Open	;
34	30	278	414.957	76.2	0.0015	0	Open	;
340	241	247	176.01	76.2	0.0015	0	Open	;
341	208	242	135.251	76.2	0.0015	0	Open	;
342	242	12	34.694	76.2	0.0015	0	Open	;
343	243	114	41.871	76.2	0.0015	0	Open	;
344	244	10	28.201	76.2	0.0015	0	Open	;
345	12	209	40.398	76.2	0.0015	0	Open	;
346	245	243	40.956	76.2	0.0015	0	Open	;
347	10	243	26.678	76.2	0.0015	0	Open	;
348	246	245	11.02	76.2	0.0015	0	Open	;
349	245	209	105.714	76.2	0.0015	0	Open	;
35	31	39	151.194	76.2	0.0015	0	Open	;
350	242	114	108.261	76.2	0.0015	0	Open	;
351	247	240	24.903	76.2	0.0015	0	Open	;
352	248	284	231.276	76.2	0.0015	0	Open	;
353	249	296	6.01	76.2	0.0015	0	Open	;
354	250	251	13.329	76.2	0.0015	0	Open	;
355	251	249	22.988	76.2	0.0015	0	Open	;
356	252	73	79.793	76.2	0.0015	0	Open	;
357	253	252	3.078	76.2	0.0015	0	Open	;
358	254	357	163.056	76.2	0.0015	0	Open	;
359	255	265	37.004	76.2	0.0015	0	Open	;
36	32	33	14.93	76.2	0.0015	0	Open	;
360	256	358	90.011	76.2	0.0015	0	Open	;
361	257	258	74.007	76.2	0.0015	0	Open	;
362	258	259	53.441	76.2	0.0015	0	Open	;
363	258	255	80.005	76.2	0.0015	0	Open	;
364	259	256	36.565	76.2	0.0015	0	Open	;
365	260	273	76.553	76.2	0.0015	0	Open	;
366	261	271	78.324	76.2	0.0015	0	Open	;
367	262	268	79.918	76.2	0.0015	0	Open	;
368	263	257	80.002	76.2	0.0015	0	Open	;
369	264	265	13.567	76.2	0.0015	0	Open	;
37	33	34	102.549	76.2	0.0015	0	Open	;
370	265	263	37	76.2	0.0015	0	Open	;
371	266	264	64.435	76.2	0.0015	0	Open	;
372	267	105	30.001	76.2	0.0015	0	Open	;
373	266	105	35	76.2	0.0015	0	Open	;
374	268	261	30.019	76.2	0.0015	0	Open	;
375	260	286	191.861	76.2	0.0015	0	Open	;
376	269	327	141.627	76.2	0.0015	0	Open	;
377	269	272	73.394	76.2	0.0015	0	Open	;
378	270	262	10.082	76.2	0.0015	0	Open	;
379	271	107	11.675	76.2	0.0015	0	Open	;
38	34	30	134.639	76.2	0.0015	0	Open	;
380	270	107	30.603	76.2	0.0015	0	Open	;
381	270	269	50.135	76.2	0.0015	0	Open	;
382	272	254	19.793	76.2	0.0015	0	Open	;
383	272	260	30.489	76.2	0.0015	0	Open	;
384	273	74	426.928	76.2	0.0015	0	Open	;
385	274	13	16.844	76.2	0.0015	0	Open	;
386	16	13	20.496	76.2	0.0015	0	Open	;
387	275	359	68.991	76.2	0.0015	0	Open	;
388	276	297	34.661	76.2	0.0015	0	Open	;
389	278	359	11.092	76.2	0.0015	0	Open	;
39	33	310	7.409	76.2	0.0015	0	Open	;
390	34	298	16.619	76.2	0.0015	0	Open	;
391	279	37	68.406	76.2	0.0015	0	Open	;
392	280	72	365.38	76.2	0.0015	0	Open	;
393	170	281	35.926	152.4	0.0015	0	Open	;
394	281	282	36.004	152.4	0.0015	0	Open	;
395	137	328	173.115	76.2	0.0015	0	Open	;
396	170	145	6.712	152.4	0.0015	0	Open	;
397	282	145	5	152.4	0.0015	0	Open	;
398	248	283	16.237	76.2	0.0015	0	Open	;
399	283	285	109.758	76.2	0.0015	0	Open	;
4	3	300	71.397	76.2	0.0015	0	Open	;
40	35	311	43.41	76.2	0.0015	0	Open	;
400	284	115	11.467	76.2	0.0015	0	Open	;
401	283	327	7.568	76.2	0.0015	0	Open	;
402	285	360	27.055	76.2	0.0015	0	Open	;
403	286	285	27.968	76.2	0.0015	0	Open	;
404	287	202	8.526	76.2	0.0015	0	Open	;
405	288	203	28.513	76.2	0.0015	0	Open	;
406	289	186	99.52	76.2	0.0015	0	Open	;
407	290	291	14.685	76.2	0.0015	0	Open	;
408	291	361	61.299	76.2	0.0015	0	Open	;
409	290	173	58.129	76.2	0.0015	0	Open	;
41	36	35	3.185	76.2	0.0015	0	Open	;
410	292	112	5.604	76.2	0.0015	0	Open	;
411	293	139	92.729	76.2	0.0015	0	Open	;
412	293	330	90.403	76.2	0.0015	0	Open	;
413	294	295	78.348	76.2	0.0015	0	Open	;
414	294	156	4.952	152.4	0.0015	0	Open	;
415	295	149	10.51	76.2	0.0015	0	Open	;
416	151	326	8.742	76.2	0.0015	0	Open	;
417	252	362	1840.906	76.2	0.0015	0	Open	;
418	296	253	167.388	76.2	0.0015	0	Open	;
419	297	277	136.634	76.2	0.0015	0	Open	;
42	37	36	39.437	76.2	0.0015	0	Open	;
420	298	36	106.525	76.2	0.0015	0	Open	;
421	275	277	39.007	76.2	0.0015	0	Open	;
422	363	294	0.003	76.2	0.0015	0	Open	;
423	21	364	0.497	76.2	0.0015	0	Open	;
43	38	312	115.056	76.2	0.0015	0	Open	;
44	39	32	10.553	76.2	0.0015	0	Open	;
45	40	38	96.977	76.2	0.0015	0	Open	;
46	41	47	243.968	76.2	0.0015	0	Open	;
47	42	55	205.392	76.2	0.0015	0	Open	;
48	43	44	678.168	76.2	0.0015	0	Open	;
49	44	45	722.572	76.2	0.0015	0	Open	;
5	4	1	193.77	76.2	0.0015	0	Open	;
50	45	313	38.837	76.2	0.0015	0	Open	;
51	46	54	245.871	76.2	0.0015	0	Open	;
52	47	46	123.903	76.2	0.0015	0	Open	;
53	48	51	315.656	76.2	0.0015	0	Open	;
54	49	314	389.364	76.2	0.0015	0	Open	;
55	50	43	87.956	76.2	0.0015	0	Open	;
56	50	314	43.911	76.2	0.0015	0	Open	;
57	51	50	6.964	76.2	0.0015	0	Open	;
58	52	42	452.06	76.2	0.0015	0	Open	;
59	49	52	8.764	76.2	0.0015	0	Open	;
6	2	5	10.217	76.2	0.0015	0	Open	;
60	53	315	285.632	76.2	0.0015	0	Open	;
61	54	315	206.1	76.2	0.0015	0	Open	;
62	53	48	127.917	76.2	0.0015	0	Open	;
63	55	56	1009.082	76.2	0.0015	0	Open	;
64	56	316	52.115	76.2	0.0015	0	Open	;
65	57	62	400.85	76.2	0.0015	0	Open	;
66	58	61	542.851	76.2	0.0015	0	Open	;
67	59	58	107.338	76.2	0.0015	0	Open	;
68	60	57	18.064	76.2	0.0015	0	Open	;
69	61	60	64.111	76.2	0.0015	0	Open	;
7	5	4	16.713	76.2	0.0015	0	Open	;
70	62	41	136.837	76.2	0.0015	0	Open	;
71	63	28	7.825	76.2	0.0015	0	Open	;
72	23	64	174.523	76.2	0.0015	0	Open	;
73	64	307	56.754	76.2	0.0015	0	Open	;
74	19	317	110.109	76.2	0.0015	0	Open	;
75	21	318	94.601	76.2	0.0015	0	Open	;
76	364	27	462.291	76.2	0.0015	0	Open	;
77	59	309	112.175	76.2	0.0015	0	Open	;
78	39	38	90.073	76.2	0.0015	0	Open	;
79	65	66	10.932	76.2	0.0015	0	Open	;
8	6	301	85.396	76.2	0.0015	0	Open	;
80	66	79	66.701	76.2	0.0015	0	Open	;
81	67	319	38.934	76.2	0.0015	0	Open	;
82	68	69	75.849	76.2	0.0015	0	Open	;
83	69	90	13.522	76.2	0.0015	0	Open	;
84	70	320	2.497	76.2	0.0015	0	Open	;
85	71	321	224.593	76.2	0.0015	0	Open	;
86	8	119	82.003	76.2	0.0015	0	Open	;
87	72	234	429.771	76.2	0.0015	0	Open	;
88	73	276	375.941	76.2	0.0015	0	Open	;
89	74	322	133.911	76.2	0.0015	0	Open	;
9	7	8	10.17	76.2	0.0015	0	Open	;
90	75	65	79.12	76.2	0.0015	0	Open	;
91	76	126	75.529	76.2	0.0015	0	Open	;
92	77	117	78.785	101.6	0.0015	0	Open	;
93	78	71	265.553	76.2	0.0015	0	Open	;
94	71	323	53.208	76.2	0.0015	0	Open	;
95	79	99	90.464	101.6	0.0015	0	Open	;
96	80	324	56.955	76.2	0.0015	0	Open	;
97	81	70	59.858	76.2	0.0015	0	Open	;
98	82	79	81.191	101.6	0.0015	0	Open	;
99	65	77	84.978	76.2	0.0015	0	Open	;

[PUMPS]
;ID	Node1	Node2	Parameters

[VALVES]
;ID	Node1	Node2	Diameter	Type	Setting	MinorLoss

[TAGS]

[DEMANDS]
;Junction	Demand	Pattern	Category

[STATUS]
;ID	Status/Setting

[PATTERNS]
;ID	M1	M2	M3	M4	M5	M6

[CURVES]
;ID	X-Value	Y-Value

[CONTROLS]

[RULES]

[ENERGY]
Global Efficiency	75
Global Price	0
Demand Charge	0

[EMITTERS]
;Junction	Coefficient
1	0	;
10	0	;
100	0	;
101	0	;
102	0	;
103	0	;
104	0	;
105	0	;
106	0	;
107	0	;
108	0	;
109	0	;
11	0	;
110	0	;
111	0	;
112	0	;
113	0	;
114	0	;
115	0	;
116	0	;
117	0	;
118	0	;
119	0	;
12	0	;
120	0	;
121	0	;
122	0	;
123	0	;
124	0	;
125	0	;
126	0	;
127	0	;
128	0	;
129	0	;
13	0	;
130	0	;
131	0	;
132	0	;
133	0	;
134	0	;
135	0	;
136	0	;
137	0	;
138	0	;
139	0	;
14	0	;
140	0	;
141	0	;
142	0	;
143	0	;
144	0	;
145	0	;
146	0	;
147	0	;
148	0	;
149	0	;
15	0	;
150	0	;
151	0	;
152	0	;
153	0	;
154	0	;
155	0	;
156	0	;
157	0	;
158	0	;
159	0	;
16	0	;
160	0	;
161	0	;
162	0	;
163	0	;
164	0	;
165	0	;
166	0	;
167	0	;
168	0	;
169	0	;
17	0	;
170	0	;
171	0	;
172	0	;
173	0	;
174	0	;
175	0	;
176	0	;
177	0	;
178	0	;
179	0	;
18	0	;
180	0	;
181	0	;
182	0	;
183	0	;
184	0	;
185	0	;
186	0	;
187	0	;
188	0	;
189	0	;
19	0	;
190	0	;
191	0	;
192	0	;
193	0	;
194	0	;
195	0	;
196	0	;
197	0	;
198	0	;
199	0	;
2	0	;
20	0	;
200	0	;
201	0	;
202	0	;
203	0	;
204	0	;
205	0	;
206	0	;
207	0	;
208	0	;
209	0	;
21	0	;
210	0	;
211	0	;
212	0	;
213	0	;
214	0	;
215	0	;
216	0	;
217	0	;
218	0	;
219	0	;
22	0	;
220	0	;
221	0	;
222	0	;
223	0	;
224	0	;
225	0	;
226	0	;
227	0	;
228	0	;
229	0	;
23	0	;
230	0	;
231	0	;
232	0	;
233	0	;
234	0	;
235	0	;
236	0	;
237	0	;
238	0	;
239	0	;
24	0	;
240	0	;
241	0	;
242	0	;
243	0	;
244	0	;
245	0	;
246	0	;
247	0	;
248	0	;
249	0	;
25	0	;
250	0	;
251	0	;
252	0	;
253	0	;
254	0	;
255	0	;
256	0	;
257	0	;
258	0	;
259	0	;
26	0	;
260	0	;
261	0	;
262	0	;
263	0	;
264	0	;
265	0	;
266	0	;
267	0	;
268	0	;
269	0	;
27	0	;
270	0	;
271	0	;
272	0	;
273	0	;
274	0	;
275	0	;
276	0	;
277	0	;
278	0	;
279	0	;
28	0	;
280	0	;
282	0	;
283	0	;
284	0	;
285	0	;
286	0	;
287	0	;
288	0	;
289	0	;
29	0	;
290	0	;
291	0	;
292	0	;
293	0	;
294	0	;
295	0	;
296	0	;
297	0	;
298	0	;
299	0	;
3	0	;
30	0	;
300	0	;
301	0	;
302	0	;
303	0	;
304	0	;
305	0	;
306	0	;
307	0	;
308	0	;
309	0	;
31	0	;
310	0	;
311	0	;
312	0	;
313	0	;
314	0	;
315	0	;
316	0	;
317	0	;
318	0	;
319	0	;
32	0	;
320	0	;
321	0	;
322	0	;
323	0	;
324	0	;
325	0	;
326	0	;
327	0	;
328	0	;
329	0	;
33	0	;
330	0	;
331	0	;
332	0	;
333	0	;
334	0	;
335	0	;
336	0	;
337	0	;
338	0	;
339	0	;
34	0	;
340	0	;
341	0	;
342	0	;
343	0	;
344	0	;
345	0	;
346	0	;
347	0	;
348	0	;
349	0	;
35	0	;
350	0	;
351	0	;
352	0	;
353	0	;
354	0	;
355	0	;
356	0	;
357	0	;
358	0	;
359	0	;
36	0	;
360	0	;
361	0	;
362	0	;
363	0	;
364	0	;
37	0	;
38	0	;
39	0	;
4	0	;
40	0	;
41	0	;
42	0	;
43	0	;
44	0	;
45	0	;
46	0	;
47	0	;
48	0	;
49	0	;
5	0	;
50	0	;
51	0	;
52	0	;
53	0	;
54	0	;
55	0	;
56	0	;
57	0	;
58	0	;
59	0	;
6	0	;
60	0	;
61	0	;
62	0	;
63	0	;
64	0	;
65	0	;
66	0	;
67	0	;
68	0	;
69	0	;
7	0	;
70	0	;
71	0	;
72	0	;
73	0	;
74	0	;
75	0	;
76	0	;
77	0	;
78	0	;
79	0	;
8	0	;
80	0	;
81	0	;
82	0	;
83	0	;
84	0	;
85	0	;
86	0	;
87	0	;
88	0	;
89	0	;
9	0	;
90	0	;
91	0	;
92	0	;
93	0	;
94	0	;
95	0	;
96	0	;
97	0	;
98	0	;
99	0	;

[QUALITY]
;Node	InitQual

[SOURCES]
;Node	Type	Quality	Pattern

[REACTIONS]
Order Bulk	1
Order Tank	1
Order Wall	1
Global Bulk	0
Global Wall	0
Limiting Potential	0

[REACTIONS]
;Var	Value

[MIXING]
;Tank	Model

[TIMES]
;Var	Value
Duration	00:15
Pattern Timestep	00:15
Hydraulic Timestep	00:15
Quality Timestep	0:05
Pattern Start	00:00
Report Timestep	00:15
Report Start	00:00
Start ClockTime	00:00
Statistic	None

[REPORT]
;Var	Value
Status	No
Summary	No
Page	0

[OPTIONS]
Units	LPS
HeadLoss	D-W
Specific Gravity	1
Viscosity	1
Trials	1000
Accuracy	0.001
Unbalanced	Continue 10
Pattern	1
Demand Multiplier	1
Emitter Exponent	0.5
Quality	None mg/L
Diffusivity	1
Tolerance	0.01

[COORDINATES]
;Node	X-Coord	Y-Coord
1	1111007.836	1000805.485
10	1111119.066	1001634.333
100	1110302.456	1001647.139
101	1110302.189	1001605.779
102	1110302.124	1001595.681
103	1110387.847	1001589.41
104	1110792.424	1001949.857
105	1110738.341	1002021.968
106	1110730.409	1001930.387
107	1110885.637	1002014.403
108	1110980.588	1001958.323
109	1111124.29	1001388.007
11	1111218.536	1001623.38
110	1111109.185	1001284.681
111	1111119.664	1001282.834
112	1111045.261	1001593.216
113	1111034.443	1001501.609
114	1111150.767	1001671.949
115	1111069.418	1001781.383
116	1110934.374	1001503.677
117	1110462.073	1001519.73
118	1110548.913	1001513.014
119	1110740.147	1001417.004
12	1111252.647	1001620.438
120	1110651.703	1001428.482
121	1110744.622	1001508.375
122	1110843.282	1001506.26
123	1111043.667	1001578.35
124	1110639.604	1001429.012
125	1110451.394	1001411.928
126	1110444.553	1001347.783
127	1110550.286	1001432.941
128	1110561.005	1001432.456
129	1110741.999	1001401.059
13	1112299.243	1000207.468