[TITLE]

[JUNCTIONS]
;ID	Elev	Demand	Pattern
10	0.008	0	 	;
100	0.482	0	 	;
101	0.482	0	 	;
102	-0.003	0	 	;
103	-0.005	0	 	;
104	-0.005	0	 	;
105	-0.005	0	 	;
106	-0.005	0	 	;
107	0.002	0	 	;
108	0.002	0	 	;
109	0.01	0	 	;
11	0.008	0	 	;
110	-0.004	0	 	;
111	-0.004	0	 	;
112	0.499	0	 	;
113	0.499	0	 	;
114	0.499	0	 	;
115	0.499	0	 	;
116	0.499	0	 	;
117	0.499	0	 	;
118	0.493	0	 	;
119	0.493	0	 	;
12	0.001	0	 	;
120	0.493	0	 	;
121	0.493	0	 	;
122	0.483	0	 	;
123	0.483	0	 	;
124	0.127	0	 	;
125	0.127	0	 	;
126	0.125	0	 	;
127	0.125	0	 	;
128	0.833	0	 	;
129	0.833	0	 	;
13	0.001	0	 	;
130	0.819	0	 	;
131	0.846	0	 	;
132	0.846	0	 	;
133	0.491	0	 	;
134	0.491	0	 	;
135	0.487	0	 	;
136	0.487	0	 	;
137	0.472	0	 	;
138	0.465	0	 	;
139	0.479	0	 	;
14	0.003	0	 	;
140	0.479	0	 	;
141	0.491	0	 	;
142	0.489	0	 	;
143	0.489	0	 	;
144	0.488	0	 	;
145	0.495	0	 	;
146	0.495	0	 	;
147	0.495	0	 	;
148	0.495	0	 	;
149	0.507	0	 	;
15	0.003	0	 	;
150	0.507	0	 	;
151	0.15	0	 	;
152	0.481	0	 	;
153	0.481	0	 	;
154	0.481	0	 	;
155	0.483	0	 	;
156	0.483	0	 	;
157	0.483	0	 	;
158	0.483	0	 	;
159	0.476	0	 	;
16	0.003	0	 	;
160	0.476	0	 	;
161	0.476	0	 	;
162	0.476	0	 	;
163	0.489	0	 	;
164	0.489	0	 	;
165	0.485	0	 	;
166	0.481	0	 	;
167	0.481	0	 	;
168	0.481	0	 	;
169	0.481	0	 	;
17	0.003	0	 	;
170	0.471	0	 	;
171	0.471	0	 	;
172	0.471	0	 	;
173	0.471	0	 	;
174	0.496	0	 	;
175	0.496	0	 	;
176	0.136	0	 	;
177	0.136	0	 	;
178	0.131	0	 	;
179	0.131	0	 	;
18	0	0	 	;
180	0.811	0	 	;
181	0.811	0	 	;
182	0.811	0	 	;
183	0.811	0	 	;
184	0.811	0	 	;
185	0.496	0	 	;
186	0.496	0	 	;
187	0.49	0	 	;
188	0.49	0	 	;
189	0.473	0	 	;
19	0	0	 	;
190	0.472	0	 	;
191	0.472	0	 	;
192	0.495	0	 	;
193	0.495	0	 	;
194	0.495	0	 	;
195	0.495	0	 	;
196	0.494	0	 	;
197	0.494	0	 	;
198	0.493	0	 	;
199	0.519	0	 	;
2	0.004	0	 	;
20	-0.004	0	 	;
200	0.519	0	 	;
201	0.519	0	 	;
202	0.519	0	 	;
203	0.476	0	 	;
204	0.486	0	 	;
205	0.486	0	 	;
206	0.497	0	 	;
207	0.496	0	 	;
208	0.496	0	 	;
209	0.496	0	 	;
21	-0.004	0	 	;
210	0.496	0	 	;
211	0.493	0	 	;
212	0.493	0	 	;
213	0.493	0	 	;
214	0.493	0	 	;
215	0.477	0	 	;
216	0.477	0	 	;
217	0.484	0	 	;
218	0.484	0	 	;
219	0.484	0	 	;
22	0.005	0	 	;
220	0.498	0	 	;
221	0.498	0	 	;
222	0.498	0	 	;
223	0.498	0	 	;
224	0.493	0	 	;
225	0.493	0	 	;
226	0.493	0	 	;
227	0.493	0	 	;
228	0.15	0	 	;
229	0.162	0	 	;
23	0.005	0	 	;
230	0.162	0	 	;
231	0.519	0	 	;
232	0.519	0	 	;
233	0.5	0	 	;
234	0.5	0	 	;
235	0.481	0	 	;
236	0.494	0	 	;
237	0.498	0	 	;
238	0.495	0	 	;
239	0.495	0	 	;
24	0.003	0	 	;
240	0.52	0	 	;
241	0.52	0	 	;
242	0.52	0	 	;
243	0.52	0	 	;
244	0.502	1	 	;
245	0.505	1	 	;
246	0.504	1	 	;
247	0.017	0	 	;
248	0.51	0	 	;
249	0.523	0	 	;
25	0.011	0	 	;
250	0.533	0	 	;
251	0.009	0	 	;
252	0.512	0	 	;
253	0.526	0	 	;
254	0.533	0	 	;
255	0.503	0	 	;
256	0.508	0	 	;
26	0.013	0	 	;
27	0.013	0	 	;
28	0.004	0	 	;
29	0.004	0	 	;
3	0.004	0	 	;
30	-0.006	0	 	;
31	0.005	0	 	;
32	0.005	0	 	;
33	0.005	0	 	;
34	0.005	0	 	;
35	-0.003	0	 	;
36	-0.003	0	 	;
37	-0.01	0	 	;
38	-0.005	0	 	;
39	-0.005	0	 	;
4	-0.001	0	 	;
40	-0.005	0	 	;
41	-0.005	0	 	;
42	-0.006	0	 	;
43	-0.006	0	 	;
44	-0.006	0	 	;
45	-0.006	0	 	;
46	0.012	0	 	;
47	0.012	0	 	;
48	0.015	0	 	;
49	0.001	0	 	;
5	-0.001	0	 	;
50	0.001	0	 	;
51	0.001	0	 	;
52	0.001	0	 	;
53	0.001	0	 	;
54	0.001	0	 	;
55	-0.008	0	 	;
56	-0.008	0	 	;
57	-0.021	0	 	;
58	-0.015	0	 	;
59	-0.007	0	 	;
6	-0.001	0	 	;
60	-0.007	0	 	;
61	0.013	0	 	;
62	0.013	0	 	;
63	0.013	0	 	;
64	0.013	0	 	;
65	0.02	0	 	;
66	0.02	0	 	;
67	0.027	0	 	;
68	0.024	0	 	;
69	0.016	0	 	;
7	-0.001	0	 	;
70	0.016	0	 	;
71	0.016	0	 	;
72	0.016	0	 	;
73	0.05	0	 	;
74	0.05	0	 	;
75	0.491	0	 	;
76	0.491	0	 	;
77	0.491	0	 	;
78	0.491	0	 	;
79	-0.006	0	 	;
8	0.004	0	 	;
80	-0.006	0	 	;
81	-0.006	0	 	;
82	-0.006	0	 	;
83	-0.006	0	 	;
84	0.443	0	 	;
85	0.443	0	 	;
86	0.443	0	 	;
87	0.443	0	 	;
88	0.156	0	 	;
89	0.156	0	 	;
9	0.004	0	 	;
90	0.156	0	 	;
91	0.156	0	 	;
92	0.495	0	 	;
93	0.495	0	 	;
94	0.484	0	 	;
95	0.484	0	 	;
96	0.484	0	 	;
97	0.484	0	 	;
98	0.482	0	 	;
99	0.482	0	 	;

[RESERVOIRS]
;ID	Head	Pattern
1	4	 	;

[TANKS]
;ID	Elevation	InitLevel	MinLevel	MaxLevel	Diameter	MinVol	VolCurve

[PIPES]
;ID	Node1	Node2	Length	Diameter	Roughness	MinorLoss	Status
1	1	2	1.2	152.4	0.0015	0	Open	;
10	10	11	0.34	76.2	0.0015	0	Open	;
100	99	100	0.14	152.4	0.0015	0	Open	;
101	99	101	0.14	152.4	0.0015	0	Open	;
102	53	102	0.73	76.2	0.0015	0	Open	;
103	102	103	0.74	76.2	0.0015	0	Open	;
104	103	104	0.14	76.2	0.0015	0	Open	;
105	104	105	0.14	152.4	0.0015	0	Open	;
106	104	106	0.14	76.2	0.0015	0	Open	;
107	105	107	0.82	76.2	0.0015	0	Open	;
108	107	108	0.29	76.2	0.0015	0	Open	;
109	108	109	0.98	76.2	0.0015	0	Open	;
11	7	12	0.12	152.4	0.0015	0	Open	;
110	109	110	0.98	76.2	0.0015	0	Open	;
111	110	111	0.14	152.4	0.0015	0	Open	;
112	111	112	0.13	152.4	0.0015	0	Open	;
113	112	113	0.19	152.4	0.0015	0	Open	;
114	113	114	0.31	76.2	0.0015	0	Open	;
115	114	115	0.14	76.2	0.0015	0	Open	;
116	115	116	0.14	152.4	0.0015	0	Open	;
117	115	117	0.13	76.2	0.0015	0	Open	;
118	116	118	0.15	152.4	0.0015	0	Open	;
119	118	119	0.14	152.4	0.0015	0	Open	;
12	12	13	0.36	76.2	0.0015	0	Open	;
120	119	120	0.14	76.2	0.0015	0	Open	;
121	119	121	0.14	76.2	0.0015	0	Open	;
122	78	122	0.22	152.4	0.0015	0	Open	;
123	122	123	0.2	76.2	0.0015	0	Open	;
124	123	124	0.11	152.4	0.0015	0	Open	;
125	125	126	0.18	152.4	0.0015	0	Open	;
126	126	127	0.15	76.2	0.0015	0	Open	;
127	127	128	0.14	152.4	0.0015	0	Open	;
128	128	129	0.23	76.2	0.0015	0	Open	;
129	129	130	0.49	76.2	0.0015	0	Open	;
13	13	14	0.16	152.4	0.0015	0	Open	;
130	130	131	0.34	152.4	0.0015	0	Open	;
131	131	132	0.15	76.2	0.0015	0	Open	;
132	132	133	0.14	152.4	0.0015	0	Open	;
133	133	134	0.24	152.4	0.0015	0	Open	;
134	134	135	0.31	76.2	0.0015	0	Open	;
135	135	136	0.35	152.4	0.0015	0	Open	;
136	136	97	1.34	76.2	0.0015	0	Open	;
137	101	137	0.58	76.2	0.0015	0	Open	;
138	137	138	0.42	76.2	0.0015	0	Open	;
139	138	139	0.49	76.2	0.0015	0	Open	;
14	14	15	0.17	152.4	0.0015	0	Open	;
140	139	140	0.18	76.2	0.0015	0	Open	;
141	140	121	1.27	76.2	0.0015	0	Open	;
142	77	141	0.09	152.4	0.0015	0	Open	;
143	141	142	0.64	152.4	0.0015	0	Open	;
144	142	143	0.2	152.4	0.0015	0	Open	;
145	143	144	0.72	152.4	0.0015	0	Open	;
146	144	145	0.65	76.2	0.0015	0	Open	;
147	145	146	0.11	76.2	0.0015	0	Open	;
148	146	147	0.12	152.4	0.0015	0	Open	;
149	146	148	0.12	76.2	0.0015	0	Open	;
15	15	17	0.15	76.2	0.0015	0	Open	;
150	100	152	0.4	76.2	0.0015	0	Open	;
151	152	153	0.29	76.2	0.0015	0	Open	;
152	153	154	0.46	76.2	0.0015	0	Open	;
153	154	155	0.7	152.4	0.0015	0	Open	;
154	155	156	0.14	152.4	0.0015	0	Open	;
155	156	157	0.14	76.2	0.0015	0	Open	;
156	156	158	0.13	76.2	0.0015	0	Open	;
157	157	159	0.18	76.2	0.0015	0	Open	;
158	159	160	0.14	152.4	0.0015	0	Open	;
159	160	161	0.14	76.2	0.0015	0	Open	;
16	15	16	0.17	152.4	0.0015	0	Open	;
160	160	162	0.14	76.2	0.0015	0	Open	;
161	120	163	0.36	76.2	0.0015	0	Open	;
162	163	164	0.29	76.2	0.0015	0	Open	;
163	164	165	0.46	152.4	0.0015	0	Open	;
164	165	166	0.72	76.2	0.0015	0	Open	;
165	166	167	0.14	76.2	0.0015	0	Open	;
166	167	168	0.14	76.2	0.0015	0	Open	;
167	167	169	0.13	76.2	0.0015	0	Open	;
168	168	170	0.18	76.2	0.0015	0	Open	;
169	170	171	0.14	152.4	0.0015	0	Open	;
17	16	18	0.28	76.2	0.0015	0	Open	;
170	171	172	0.14	152.4	0.0015	0	Open	;
171	171	173	0.14	76.2	0.0015	0	Open	;
172	148	174	0.2	76.2	0.0015	0	Open	;
173	174	175	0.17	76.2	0.0015	0	Open	;
174	175	176	0.12	76.2	0.0015	0	Open	;
175	176	177	0.18	152.4	0.0015	0	Open	;
176	177	178	0.17	152.4	0.0015	0	Open	;
177	178	179	0.29	76.2	0.0015	0	Open	;
178	179	180	0.2	76.2	0.0015	0	Open	;
179	180	181	0.28	76.2	0.0015	0	Open	;
18	18	19	0.36	152.4	0.0015	0	Open	;
180	181	182	0.45	76.2	0.0015	0	Open	;
181	182	183	0.32	152.4	0.0015	0	Open	;
182	183	184	0.24	76.2	0.0015	0	Open	;
183	184	185	0.15	152.4	0.0015	0	Open	;
184	185	186	0.24	76.2	0.0015	0	Open	;
185	186	187	0.32	152.4	0.0015	0	Open	;
186	187	188	0.4	152.4	0.0015	0	Open	;
187	188	158	1.22	76.2	0.0015	0	Open	;
188	162	189	0.78	76.2	0.0015	0	Open	;
189	189	190	0.95	76.2	0.0015	0	Open	;
19	19	20	0.28	76.2	0.0015	0	Open	;
190	190	191	0.21	76.2	0.0015	0	Open	;
191	191	173	1	152.4	0.0015	0	Open	;
192	147	192	0.11	76.2	0.0015	0	Open	;
193	192	193	0.11	76.2	0.0015	0	Open	;
194	193	194	0.11	76.2	0.0015	0	Open	;
195	193	195	0.12	76.2	0.0015	0	Open	;
196	194	196	0.72	76.2	0.0015	0	Open	;
197	196	197	0.11	76.2	0.0015	0	Open	;
198	197	198	1.03	76.2	0.0015	0	Open	;
199	198	199	1.11	76.2	0.0015	0	Open	;
2	2	3	0.3	152.4	0.0015	0	Open	;
20	20	21	0.3	152.4	0.0015	0	Open	;
200	199	200	0.12	76.2	0.0015	0	Open	;
201	200	201	0.11	76.2	0.0015	0	Open	;
202	200	202	0.12	76.2	0.0015	0	Open	;
203	161	203	0.09	76.2	0.0015	0	Open	;
204	203	204	0.62	152.4	0.0015	0	Open	;
205	204	205	0.1	152.4	0.0015	0	Open	;
206	205	206	0.98	76.2	0.0015	0	Open	;
207	206	207	0.98	152.4	0.0015	0	Open	;
208	207	208	0.12	76.2	0.0015	0	Open	;
209	208	209	0.11	152.4	0.0015	0	Open	;
21	21	22	1.57	152.4	0.0015	0	Open	;
210	208	210	0.12	152.4	0.0015	0	Open	;
211	209	211	0.11	76.2	0.0015	0	Open	;
212	211	212	0.11	152.4	0.0015	0	Open	;
213	212	213	0.11	76.2	0.0015	0	Open	;
214	212	214	0.12	76.2	0.0015	0	Open	;
215	172	215	0.6	76.2	0.0015	0	Open	;
216	215	216	0.29	76.2	0.0015	0	Open	;
217	216	217	0.93	76.2	0.0015	0	Open	;
218	217	218	0.14	152.4	0.0015	0	Open	;
219	218	219	0.09	76.2	0.0015	0	Open	;
22	22	23	0.29	152.4	0.0015	0	Open	;
220	219	220	0.83	76.2	0.0015	0	Open	;
221	220	221	0.11	76.2	0.0015	0	Open	;
222	221	222	0.11	152.4	0.0015	0	Open	;
223	221	223	0.12	152.4	0.0015	0	Open	;
224	222	224	0.12	76.2	0.0015	0	Open	;
225	224	225	0.11	152.4	0.0015	0	Open	;
226	225	226	0.11	152.4	0.0015	0	Open	;
227	225	227	0.12	152.4	0.0015	0	Open	;
228	202	149	0.48	76.2	0.0015	0	Open	;
229	149	150	0.12	152.4	0.0015	0	Open	;
23	23	24	0.6	152.4	0.0015	0	Open	;
230	150	151	0.09	76.2	0.0015	0	Open	;
231	151	228	0.17	152.4	0.0015	0	Open	;
232	228	229	0.39	76.2	0.0015	0	Open	;
233	229	230	0.12	76.2	0.0015	0	Open	;
234	230	231	0.13	152.4	0.0015	0	Open	;
235	231	232	0.19	152.4	0.0015	0	Open	;
236	232	233	0.8	76.2	0.0015	0	Open	;
237	233	234	0.11	152.4	0.0015	0	Open	;
238	234	235	0.72	76.2	0.0015	0	Open	;
239	235	236	0.84	76.2	0.0015	0	Open	;
24	24	25	1.3	76.2	0.0015	0	Open	;
240	236	210	0.54	76.2	0.0015	0	Open	;
241	214	237	1.39	76.2	0.0015	0	Open	;
242	237	238	0.74	152.4	0.0015	0	Open	;
243	238	239	0.11	152.4	0.0015	0	Open	;
244	239	227	0.76	76.2	0.0015	0	Open	;
245	201	240	0.11	76.2	0.0015	0	Open	;
246	240	241	0.11	152.4	0.0015	0	Open	;
247	241	242	0.11	152.4	0.0015	0	Open	;
248	241	243	0.12	76.2	0.0015	0	Open	;
249	242	244	0.28	152.4	0.0015	0	Open	;
25	25	26	1.15	76.2	0.0015	0	Open	;
250	213	245	0.96	76.2	0.0015	0	Open	;
251	226	246	0.97	76.2	0.0015	0	Open	;
252	62	64	0.15	152.4	0.0015	0	Open	;
253	64	247	1.27	76.2	0.0015	0	Open	;
254	195	248	1.23	76.2	0.0015	0	Open	;
255	243	249	0.51	76.2	0.0015	0	Open	;
256	249	250	0.73	76.2	0.0015	0	Open	;
257	106	251	2.29	76.2	0.0015	0	Open	;
258	117	252	1.06	76.2	0.0015	0	Open	;
259	252	253	1.21	76.2	0.0015	0	Open	;
26	26	27	0.28	152.4	0.0015	0	Open	;
260	169	254	2.23	76.2	0.0015	0	Open	;
261	223	255	1.14	76.2	0.0015	0	Open	;
262	255	256	1.2	152.4	0.0015	0	Open	;
263	124	125	0.2	152.4	0.0015	0	Open	;
27	27	28	0.22	76.2	0.0015	0	Open	;
28	28	29	0.36	76.2	0.0015	0	Open	;
29	29	30	0.39	152.4	0.0015	0	Open	;
3	3	4	0.99	76.2	0.0015	0	Open	;
30	30	31	0.34	76.2	0.0015	0	Open	;
31	31	32	0.17	76.2	0.0015	0	Open	;
32	32	33	0.17	76.2	0.0015	0	Open	;
33	32	34	0.15	152.4	0.0015	0	Open	;
34	17	35	0.78	76.2	0.0015	0	Open	;
35	35	36	0.29	152.4	0.0015	0	Open	;
36	36	37	0.85	76.2	0.0015	0	Open	;
37	37	38	1	76.2	0.0015	0	Open	;
38	38	39	0.14	76.2	0.0015	0	Open	;
39	39	40	0.14	152.4	0.0015	0	Open	;
4	4	5	0.16	76.2	0.0015	0	Open	;
40	40	42	0.13	76.2	0.0015	0	Open	;
41	39	41	0.14	152.4	0.0015	0	Open	;
42	42	43	0.11	152.4	0.0015	0	Open	;
43	43	44	0.14	76.2	0.0015	0	Open	;
44	43	45	0.14	76.2	0.0015	0	Open	;
45	11	46	0.84	152.4	0.0015	0	Open	;
46	46	47	0.36	76.2	0.0015	0	Open	;
47	47	48	0.71	152.4	0.0015	0	Open	;
48	48	49	0.79	152.4	0.0015	0	Open	;
49	49	50	0.14	76.2	0.0015	0	Open	;
5	5	6	0.17	152.4	0.0015	0	Open	;
50	50	51	0.07	152.4	0.0015	0	Open	;
51	51	52	0.14	76.2	0.0015	0	Open	;
52	52	53	0.14	76.2	0.0015	0	Open	;
53	52	54	0.14	152.4	0.0015	0	Open	;
54	34	55	0.92	76.2	0.0015	0	Open	;
55	55	56	0.29	152.4	0.0015	0	Open	;
56	56	57	1.16	76.2	0.0015	0	Open	;
57	57	45	1.93	76.2	0.0015	0	Open	;
58	41	58	1.01	76.2	0.0015	0	Open	;
59	58	59	1	76.2	0.0015	0	Open	;
6	5	7	0.17	76.2	0.0015	0	Open	;
60	59	60	0.29	76.2	0.0015	0	Open	;
61	60	54	0.65	76.2	0.0015	0	Open	;
62	33	61	0.11	76.2	0.0015	0	Open	;
63	61	62	0.17	152.4	0.0015	0	Open	;
64	62	63	0.16	152.4	0.0015	0	Open	;
65	63	65	0.98	76.2	0.0015	0	Open	;
66	65	66	0.36	76.2	0.0015	0	Open	;
67	66	67	0.55	76.2	0.0015	0	Open	;
68	67	68	0.5	76.2	0.0015	0	Open	;
69	68	69	1.08	152.4	0.0015	0	Open	;
7	6	8	0.76	76.2	0.0015	0	Open	;
70	69	70	0.14	76.2	0.0015	0	Open	;
71	70	71	0.09	152.4	0.0015	0	Open	;
72	71	72	0.14	76.2	0.0015	0	Open	;
73	72	73	0.1	152.4	0.0015	0	Open	;
74	73	74	0.17	152.4	0.0015	0	Open	;
75	74	75	0.55	76.2	0.0015	0	Open	;
76	75	76	0.14	152.4	0.0015	0	Open	;
77	76	77	0.14	76.2	0.0015	0	Open	;
78	76	78	0.14	152.4	0.0015	0	Open	;
79	44	79	0.89	76.2	0.0015	0	Open	;
8	8	9	0.36	76.2	0.0015	0	Open	;
80	79	80	0.29	76.2	0.0015	0	Open	;
81	80	81	0.74	76.2	0.0015	0	Open	;
82	81	82	0.69	76.2	0.0015	0	Open	;
83	82	83	0.14	76.2	0.0015	0	Open	;
84	83	84	0.07	76.2	0.0015	0	Open	;
85	84	85	0.16	152.4	0.0015	0	Open	;
86	85	86	0.57	76.2	0.0015	0	Open	;
87	86	87	0.14	76.2	0.0015	0	Open	;
88	87	88	0.08	76.2	0.0015	0	Open	;
89	88	89	0.16	76.2	0.0015	0	Open	;
9	9	10	0.82	76.2	0.0015	0	Open	;
90	89	90	0.75	152.4	0.0015	0	Open	;
91	90	91	0.14	76.2	0.0015	0	Open	;
92	91	92	0.08	76.2	0.0015	0	Open	;
93	92	93	0.16	152.4	0.0015	0	Open	;
94	93	94	0.24	76.2	0.0015	0	Open	;
95	94	95	0.14	76.2	0.0015	0	Open	;
96	95	96	0.14	152.4	0.0015	0	Open	;
97	95	97	0.14	76.2	0.0015	0	Open	;
98	96	98	0.21	76.2	0.0015	0	Open	;
99	98	99	0.14	152.4	0.0015	0	Open	;

[PUMPS]
;ID	Node1	Node2	Parameters

[VALVES]
;ID	Node1	Node2	Diameter	Type	Setting	MinorLoss

[TAGS]

[DEMANDS]
;Junction	Demand	Pattern	Category

[STATUS]
;ID	Status/Setting

[PATTERNS]
;ID	M1	M2	M3	M4	M5	M6

[CURVES]
;ID	X-Value	Y-Value

[CONTROLS]

[RULES]

[ENERGY]
Global Efficiency	75
Global Price	0
Demand Charge	0

[EMITTERS]
;Junction	Coefficient
10	0	;
100	0	;
101	0	;
102	0	;
103	0	;
104	0	;
105	0	;
106	0	;
107	0	;
108	0	;
109	0	;
11	0	;
110	0	;
111	0	;
112	0	;
113	0	;
114	0	;
115	0	;
116	0	;
117	0	;
118	0	;
119	0	;
12	0	;
120	0	;
121	0	;
122	0	;
123	0	;
124	0	;
125	0	;
126	0	;
127	0	;
128	0	;
129	0	;
13	0	;
130	0	;
131	0	;
132	0	;
133	0	;
134	0	;
135	0	;
136	0	;
137	0	;
138	0	;
139	0	;
14	0	;
140	0	;
141	0	;
142	0	;
143	0	;
144	0	;
145	0	;
146	0	;
147	0	;
148	0	;
149	0	;
15	0	;
150	0	;
151	0	;
152	0	;
153	0	;
154	0	;
155	0	;
156	0	;
157	0	;
158	0	;
159	0	;
16	0	;
160	0	;
161	0	;
162	0	;
163	0	;
164	0	;
165	0	;
166	0	;
167	0	;
168	0	;
169	0	;
17	0	;
170	0	;
171	0	;
172	0	;
173	0	;
174	0	;
175	0	;
176	0	;
177	0	;
178	0	;
179	0	;
18	0	;
180	0	;
181	0	;
182	0	;
183	0	;
184	0	;
185	0	;
186	0	;
187	0	;
188	0	;
189	0	;
19	0	;
190	0	;
191	0	;
192	0	;
193	0	;
194	0	;
195	0	;
196	0	;
197	0	;
198	0	;
199	0	;
2	0	;
20	0	;
200	0	;
201	0	;
202	0	;
203	0	;
204	0	;
205	0	;
206	0	;
207	0	;
208	0	;
209	0	;
21	0	;
210	0	;
211	0	;
212	0	;
213	0	;
214	0	;
215	0	;
216	0	;
217	0	;
218	0	;
219	0	;
22	0	;
220	0	;
221	0	;
222	0	;
223	0	;
224	0	;
225	0	;
226	0	;
227	0	;
228	0	;
229	0	;
23	0	;
230	0	;
231	0	;
232	0	;
233	0	;
234	0	;
235	0	;
236	0	;
237	0	;
238	0	;
239	0	;
24	0	;
240	0	;
241	0	;
242	0	;
243	0	;
244	0	;
245	0	;
246	0	;
247	0	;
248	0	;
249	0	;
25	0	;
250	0	;
251	0	;
252	0	;
253	0	;
254	0	;
255	0	;
256	0	;
26	0	;
27	0	;
28	0	;
29	0	;
3	0	;
30	0	;
31	0	;
32	0	;
33	0	;
34	0	;
35	0	;
36	0	;
37	0	;
38	0	;
39	0	;
4	0	;
40	0	;
41	0	;
42	0	;
43	0	;
44	0	;
45	0	;
46	0	;
47	0	;
48	0	;
49	0	;
5	0	;
50	0	;
51	0	;
52	0	;
53	0	;
54	0	;
55	0	;
56	0	;
57	0	;
58	0	;
59	0	;
6	0	;
60	0	;
61	0	;
62	0	;
63	0	;
64	0	;
65	0	;
66	0	;
67	0	;
68	0	;
69	0	;
7	0	;
70	0	;
71	0	;
72	0	;
73	0	;
74	0	;
75	0	;
76	0	;
77	0	;
78	0	;
79	0	;
8	0	;
80	0	;
81	0	;
82	0	;
83	0	;
84	0	;
85	0	;
86	0	;
87	0	;
88	0	;
89	0	;
9	0	;
90	0	;
91	0	;
92	0	;
93	0	;
94	0	;
95	0	;
96	0	;
97	0	;
98	0	;
99	0	;

[QUALITY]
;Node	InitQual

[SOURCES]
;Node	Type	Quality	Pattern

[REACTIONS]
Order Bulk	1
Order Tank	1
Order Wall	1
Global Bulk	0
Global Wall	0
Limiting Potential	0

[REACTIONS]
;Var	Value

[MIXING]
;Tank	Model

[TIMES]
;Var	Value
Duration	00:15
Pattern Timestep	01:00
Hydraulic Timestep	01:00
Quality Timestep	0:05
Pattern Start	00:00
Report Timestep	01:00
Report Start	00:00
Start ClockTime	00:00
Statistic	None

[REPORT]
;Var	Value
Status	No
Summary	No
Page	0

[OPTIONS]
Units	LPS
HeadLoss	D-W
Specific Gravity	1
Viscosity	1
Trials	1000
Accuracy	0.001
Unbalanced	Continue 10
Pattern	1
Demand Multiplier	1
Emitter Exponent	0.5
Quality	None mg/L
Diffusivity	1
Tolerance	0.01

[COORDINATES]
;Node	X-Coord	Y-Coord
1	100	100
10	100.75	98.7
100	97.68	89.19
101	97.82	89.33
102	100.9	94.64
103	100.9	93.9
104	100.9	93.76
105	100.9	93.62
106	101.04	93.76
107	100.9	92.8
108	100.9	92.51
109	100.9	91.53
11	100.9	98.55
110	100.9	90.55
111	100.9	90.41
112	100.9	90.41
113	100.9	90.27
114	100.9	89.97
115	100.9	89.83
116	100.9	89.69
117	101.03	89.83
118	100.9	89.54
119	100.9	89.4
12	98.37	98.7
120	100.9	89.26
121	100.76	89.4
122	93.64	89.92
123	93.78	89.92
124	93.78	89.92
125	93.92	89.91
126	94.27	89.9
127	94.41	89.9
128	94.41	89.9
129	94.55	89.9
13	98.01	98.7
130	95.17	89.88
131	96.13	89.86
132	96.27	89.85
133	96.27	89.85
134	96.41	89.85
135	96.65	89.84
136	96.94	89.84
137	98.76	89.35
138	99.18	89.36
139	99.56	89.37
14	97.85	98.7
140	99.85	89.37
141	93.1	89.7
142	93.1	89.06
143	93.1	88.86
144	93.1	88.14
145	93.1	87.49
146	93.1	87.37
147	93.1	87.26
148	93.22	87.37
149	93.7	83.83
15	97.68	98.7
150	93.82	83.82
151	93.82	83.82
152	97.68	88.79
153	97.68	88.5
154	97.68	88.05
155	97.68	87.35
156	97.68	87.21
157	97.68	87.07
158	97.55	87.21
159	97.68	86.89
16	97.52	98.7
160	97.68	86.75
161	97.68	86.61
162	97.82	86.75
163	100.9	88.89
164	100.9	88.6
165	100.9	88.15
166	100.9	87.42
167	100.9	87.28
168	100.9	87.14
169	101.03	87.28
17	97.68	98.55
170	100.9	86.96
171	100.9	86.82
172	100.9	86.68
173	100.76	86.82
174	93.7	87.35
175	93.82	87.35
176	93.82	87.35
177	93.94	87.34
178	94.33	87.33
179	94.45	87.32
18	97.23	98.7
180	94.45	87.32
181	94.57	87.32
182	95.12	87.3
183	96.16	87.26
184	96.28	87.26
185	96.28	87.26
186	96.4	87.25
187	96.73	87.24
188	96.84	87.24
189	98.74	86.77
19	96.87	98.7
190	99.4	86.79
191	99.69	86.79
192	93.1	87.15
193	93.1	87.03
194	93.1	86.92
195	92.98	87.03
196	93.1	86.19
197	93.1	86.09
198	93.1	85.06
199	93.1	83.96
2	98.8	100
20	96.59	98.7
200	93.1	83.84
201	93.1	83.73
202	93.22	83.84
203	97.68	86.52
204	97.68	85.9
205	97.68	85.79
206	97.68	84.81
207	97.68	83.83
208	97.68	83.72
209	97.68	83.6
21	96.44	98.55
210	97.56	83.72
211	97.68	83.49
212	97.68	83.38
213	97.68	83.26
214	97.8	83.38
215	100.9	86.09
216	100.9	85.8
217	100.9	84.87
218	100.9	84.73
219	100.9	84.64
22	96.44	96.98
220	100.9	83.81
221	100.9	83.7
222	100.9	83.58
223	101.02	83.7
224	100.9	83.47
225	100.9	83.35
226	100.9	83.24
227	100.78	83.35
228	93.94	83.82
229	94.32	83.81
23	96.29	96.83
230	94.44	83.8
231	94.44	83.8
232	94.56	83.8
233	95.36	83.78
234	95.47	83.78
235	96.18	83.75
236	97.02	83.73
237	99.19	83.36
238	99.92	83.36
239	100.03	83.36
24	95.7	96.83
240	93.1	83.62
241	93.1	83.5
242	93.1	83.39
243	92.98	83.5
244	93.1	83.11
245	97.68	82.31
246	100.9	82.27
247	91.68	94.77
248	91.75	87.03
249	92.46	83.5
25	94.4	96.83
250	91.73	83.5
251	103.33	93.76
252	102.09	89.83
253	103.29	89.83
254	103.26	87.28
255	102.16	83.7
256	103.37	83.7
26	93.25	96.83
27	93.1	96.68
28	93.1	96.46
29	93.1	96.1
3	98.65	99.85
30	93.1	95.71
31	93.1	95.37
32	93.1	95.21
33	93.1	95.04
34	93.25	95.21
35	97.68	97.77
36	97.68	97.48
37	97.68	96.63
38	97.68	95.63
39	97.68	95.49
4	98.65	98.86
40	97.68	95.35
41	97.82	95.49
42	97.68	95.23
43	97.68	95.12
44	97.68	94.98
45	97.54	95.12
46	100.9	97.71
47	100.9	97.35
48	100.9	96.65
49	100.9	95.85
5	98.65	98.7
50	100.9	95.72
51	100.9	95.65
52	100.9	95.51
53	100.9	95.37
54	100.76	95.51
55	94.17	95.19
56	94.46	95.18
57	95.62	95.16
58	98.83	95.5
59	99.83	95.5
6	98.82	98.7
60	100.12	95.5
61	93.1	94.94
62	93.1	94.77
63	93.1	94.61
64	92.95	94.77
65	93.1	93.63
66	93.1	93.27
67	93.1	92.72
68	93.1	92.21
69	93.1	91.13
7	98.49	98.7
70	93.1	90.99
71	93.1	90.9
72	93.1	90.76
73	93.1	90.76
74	93.1	90.62
75	93.1	90.07
76	93.1	89.93
77	93.1	89.79
78	93.24	89.93
79	97.68	94.09
8	99.58	98.7
80	97.68	93.8
81	97.68	93.06
82	97.68	92.37
83	97.68	92.23
84	97.68	92.23
85	97.68	92.09
86	97.68	91.52
87	97.68	91.38
88	97.68	91.38
89	97.68	91.24
9	99.94	98.7
90	97.68	90.48
91	97.68	90.34
92	97.68	90.34
93	97.68	90.2
94	97.68	89.96
95	97.68	89.82
96	97.68	89.68
97	97.54	89.82
98	97.68	89.47
99	97.68	89.33

[VERTICES]
;Link	X-Coord	Y-Coord
2	98.65	100
10	100.9	98.7
20	96.44	98.7
22	96.44	96.83
26	93.09	96.83

[LABELS]
;X-Coord	Y-Coord	Label & Anchor Nodo

[BACKDROP]
;Var	Val1	Val2	Val3	Val4

[END]

