[TITLE]

[JUNCTIONS]
;ID	Elev	Demand	Pattern
10	2168	0.27	 	;
100	2182	0.26	 	;
105	2135.53	0.17	 	;
110	2142.47	0.07	 	;
112	2152.86	0.14	 	;
115	2154.45	0.14	 	;
120	2168.3	0.13	 	;
125	2167.72	0.15	 	;
130	2162.94	0.35	 	;
131	2142	0.01	 	;
135	2145.99	0.26	 	;
140	2137.22	0.11	 	;
145	2134.45	0.25	 	;
147	2136.69	0.25	 	;
148	2151.86	0.03	 	;
149	2138.27	0.19	 	;
15	2156.18	0.06	 	;
150	2148.39	0.28	 	;
155	2160.48	0.12	 	;
157	2164.71	0.13	 	;
160	2145.74	0.34	 	;
162	2132.85	0	 	;
165	2148.98	0.21	 	;
170	2133.74	0.27	 	;
172	2139.04	0.05	 	;
175	2143.66	0.06	 	;
180	2133	0.16	 	;
181	2134.19	0	 	;
182	2136	0.39	 	;
185	2157.73	0.46	 	;
190	2145.63	0.07	 	;
195	2135.68	0.26	 	;
198	2133	0.01	 	;
20	2167.64	0.12	 	;
200	2138.98	0.14	 	;
203	2154.94	0.05	 	;
205	2165.06	0.07	 	;
210	2132.04	0.13	 	;
212	2128	0.06	 	;
215	2128	0.03	 	;
22	2165.94	0.27	 	;
25	2135.53	0.14	 	;
30	2161.88	0.4	 	;
35	2151	0.55	 	;
37	2138.02	0	 	;
40	2137.54	0.09	 	;
45	2164.59	0.25	 	;
5	2135.32	0	 	;
50	2170.99	0.25	 	;
55	2170.99	0.61	 	;
57	2165	0.02	 	;
60	2152	0.05	 	;
65	2164.7	0.4	 	;
70	2134.44	0.55	 	;
75	2137.72	0.09	 	;
80	2135.64	0.09	 	;
82	2143.84	0.22	 	;
85	2140	0.04	 	;
87	2140	0	 	;
90	2140	0.09	 	;
92	2169	0.01	 	;
95	2141.25	0.03	 	;

[RESERVOIRS]
;ID	Head	Pattern
1	2192.37	 	;

[TANKS]
;ID	Elevation	InitLevel	MinLevel	MaxLevel	Diameter	MinVol	VolCurve

[PIPES]
;ID	Node1	Node2	Length	Diameter	Roughness	MinorLoss	Status
1	1	5	2135.324	304.8	0.0015	0	Open	;
10	80	82	8.455	101.6	0.0015	0	Open	;
11	80	85	6.774	101.6	0.0015	0	Open	;
12	85	87	1.701	101.6	0.0015	0	Open	;
13	87	90	4.179	203.2	0.0015	0	Open	;
14	90	92	29.065	101.6	0.0015	0	Open	;
15	90	95	5.76	254	0.0015	0	Open	;
16	30	65	3.152	304.8	0.0015	0	Open	;
17	10	30	6.176	457.2	0.0015	0	Open	;
18	30	35	11.315	762	0.0015	0	Open	;
19	35	37	13.092	254	0.0015	0	Open	;
2	5	10	32.749	152.4	0.0015	0	Open	;
20	37	40	1.473	76.2	0.0015	0	Open	;
21	35	45	13.897	762	0.0015	0	Open	;
22	45	50	7.451	101.6	0.0015	0	Open	;
23	50	55	4.349	304.8	0.0015	0	Open	;
24	55	57	8.241	457.2	0.0015	0	Open	;
25	57	60	13.244	457.2	0.0015	0	Open	;
26	20	15	11.499	304.8	0.0015	0	Open	;
27	15	115	1.826	304.8	0.0015	0	Open	;
28	125	120	0.887	914.4	0.0015	0	Open	;
29	120	115	13.882	457.2	0.0015	0	Open	;
3	10	20	1.838	457.2	0.0015	0	Open	;
30	115	110	12.057	609.6	0.0015	0	Open	;
31	110	112	10.431	152.4	0.0015	0	Open	;
32	110	105	7.04	914.4	0.0015	0	Open	;
33	70	105	1.149	406.4	0.0015	0	Open	;
34	105	149	3.005	457.2	0.0015	0	Open	;
35	149	150	10.182	508	0.0015	0	Open	;
36	149	150	10.182	457.2	0.0015	0	Open	;
37	149	147	1.711	76.2	0.0015	0	Open	;
38	150	148	3.531	203.2	0.0015	0	Open	;
39	148	147	15.234	355.6	0.0015	0	Open	;
4	20	22	1.828	762	0.0015	0	Open	;
40	147	145	2.889	508	0.0015	0	Open	;
41	145	140	2.891	457.2	0.0015	0	Open	;
42	140	135	9.207	508	0.0015	0	Open	;
43	75	140	1.803	508	0.0015	0	Open	;
44	75	100	44.397	355.6	0.0015	0	Open	;
45	120	157	3.83	304.8	0.0015	0	Open	;
46	157	155	4.301	457.2	0.0015	0	Open	;
47	155	185	2.799	508	0.0015	0	Open	;
48	185	148	5.947	406.4	0.0015	0	Open	;
49	185	182	21.99	406.4	0.0015	0	Open	;
5	22	125	2.158	203.2	0.0015	0	Open	;
50	145	181	0.868	457.2	0.0015	0	Open	;
51	181	182	2.255	609.6	0.0015	0	Open	;
52	182	195	0.561	304.8	0.0015	0	Open	;
53	195	200	3.501	609.6	0.0015	0	Open	;
54	200	190	7.045	457.2	0.0015	0	Open	;
55	200	203	16.091	203.2	0.0015	0	Open	;
56	203	205	10.301	254	0.0015	0	Open	;
57	200	210	7.443	304.8	0.0015	0	Open	;
58	210	212	4.413	254	0.0015	0	Open	;
59	212	215	4.026	254	0.0015	0	Open	;
6	10	65	3.426	609.6	0.0015	0	Open	;
60	155	160	14.78	254	0.0015	0	Open	;
61	195	162	5.487	76.2	0.0015	0	Open	;
62	162	198	1.289	355.6	0.0015	0	Open	;
63	165	157	15.803	508	0.0015	0	Open	;
64	125	165	18.864	508	0.0015	0	Open	;
65	165	170	15.315	609.6	0.0015	0	Open	;
66	170	172	5.569	152.4	0.0015	0	Open	;
67	172	131	3.342	101.6	0.0015	0	Open	;
68	172	175	4.704	406.4	0.0015	0	Open	;
69	135	130	17.662	304.8	0.0015	0	Open	;
7	65	70	30.386	457.2	0.0015	0	Open	;
70	135	180	13.134	508	0.0015	0	Open	;
71	22	25	30.451	101.6	0.0015	0	Open	;
8	70	75	3.579	101.6	0.0015	0	Open	;
9	75	80	3.432	508	0.0015	0	Open	;

[PUMPS]
;ID	Node1	Node2	Parameters

[VALVES]
;ID	Node1	Node2	Diameter	Type	Setting	MinorLoss

[TAGS]

[DEMANDS]
;Junction	Demand	Pattern	Category

[STATUS]
;ID	Status/Setting

[PATTERNS]
;ID	M1	M2	M3	M4	M5	M6

[CURVES]
;ID	X-Value	Y-Value

[CONTROLS]

[RULES]

[ENERGY]
Global Efficiency	75
Global Price	0
Demand Charge	0

[EMITTERS]
;Junction	Coefficient
10	0	;
100	0	;
105	0	;
110	0	;
112	0	;
115	0	;
120	0	;
125	0	;
130	0	;
131	0	;
135	0	;
140	0	;
145	0	;
147	0	;
148	0	;
149	0	;
15	0	;
150	0	;
155	0	;
157	0	;
160	0	;
162	0	;
165	0	;
170	0	;
172	0	;
175	0	;
180	0	;
181	0	;
182	0	;
185	0	;
190	0	;
195	0	;
198	0	;
20	0	;
200	0	;
203	0	;
205	0	;
210	0	;
212	0	;
215	0	;
22	0	;
25	0	;
30	0	;
35	0	;
37	0	;
40	0	;
45	0	;
5	0	;
50	0	;
55	0	;
57	0	;
60	0	;
65	0	;
70	0	;
75	0	;
80	0	;
82	0	;
85	0	;
87	0	;
90	0	;
92	0	;
95	0	;

[QUALITY]
;Node	InitQual

[SOURCES]
;Node	Type	Quality	Pattern

[REACTIONS]
Order Bulk	1
Order Tank	1
Order Wall	1
Global Bulk	0
Global Wall	0
Limiting Potential	0

[REACTIONS]
;Var	Value

[MIXING]
;Tank	Model

[TIMES]
;Var	Value
Duration	00:15
Pattern Timestep	00:30
Hydraulic Timestep	00:30
Quality Timestep	0:05
Pattern Start	00:00
Report Timestep	00:30
Report Start	00:00
Start ClockTime	00:00
Statistic	None

[REPORT]
;Var	Value
Status	No
Summary	No
Page	0

[OPTIONS]
Units	LPS
HeadLoss	D-W
Specific Gravity	1
Viscosity	1
Trials	1000
Accuracy	0.001
Unbalanced	Continue 10
Pattern	1
Demand Multiplier	1
Emitter Exponent	0.5
Quality	None mg/L
Diffusivity	1
Tolerance	0.01

[COORDINATES]
;Node	X-Coord	Y-Coord
1	20	5.7
10	15.6	9.9
100	8.85	14.4
105	12.35	10.95
110	12.9	9.9
112	13.8	10.1
115	13.3	8.6
120	13.6	7.7
125	13.9	7.1
130	5.3	16.7
131	14	2.6
135	7.4	12.2
140	9.8	10.75
145	9.45	10
147	11.25	9.7
148	11.75	8.4
149	11.9	9.8
15	13.8	8.9
150	12.3	8.75
155	11.55	7.6
157	12.3	7.4
160	11.25	6.55
162	11.2	5.4
165	12.1	5.9
170	12.95	4.65
172	12.5	3
175	12.25	2.15
180	7.8	10.3
181	8.7	9.65
182	7.8	8.65
185	11.05	7.75
190	6.05	10.2
195	7.5	8.3
198	12.2	4.6
20	14.6	8.4
200	6.4	7.9
203	4.9	9.3
205	4	11
210	4.4	6.1
212	4.1	4.35
215	0.45	2.65
22	14.9	7.8
25	15.8	6.5
30	16.3	10.35
35	19.1	11.7
37	19.3	13.4
40	20.6	13.9
45	21.7	13
5	17.2	8.5
50	25.5	12.65
55	29.8	12
57	34.6	15
60	32.2	15.8
65	14.9	10.5
70	12.25	11.3
75	11	12
80	12.3	14.4
82	11.8	16.4
85	17.45	13.8
87	19	14.5
90	22.9	16
92	23.5	17.85
95	28.5	15.5

[VERTICES]
;Link	X-Coord	Y-Coord

[LABELS]
;X-Coord	Y-Coord	Label & Anchor Nodo

[BACKDROP]
;Var	Val1	Val2	Val3	Val4

[END]

