[TITLE]

[JUNCTIONS]
;ID	Elev	Demand	Pattern
1	940	0	 	;
10	945.0606901	0	 	;
11	941.8480103	0.079627158	 	;
12	940.8850977	0.144392755	 	;
13	940.4321013	0.110297968	 	;
14	941.0950174	0	 	;
15	941.711096	0	 	;
16	941.7646935	0	 	;
18	940	0	 	;
19	940	0	 	;
2	939.9847396	0.182229838	 	;
20	940	0.058857134	 	;
21	940	0	 	;
22	941.4685264	0.137936186	 	;
23	941.5936675	0	 	;
24	941.7973457	0.011361388	 	;
25	949.9311712	0.1682454	 	;
26	950	0	 	;
27	941.8237463	0.004361299	 	;
28	943.1876031	0	 	;
29	943.2278243	0	 	;
3	941.5447297	0.212739766	 	;
30	943.2189665	0.049268955	 	;
31	942.6385415	0.037391925	 	;
32	945.0278494	0.022860033	 	;
33	950	0	 	;
34	949.4646145	0	 	;
35	947.3876874	0	 	;
36	946.1812737	0	 	;
37	945.8818665	0.034917934	 	;
38	940	0	 	;
39	942.6907864	0	 	;
4	941.9176761	0.134713896	 	;
40	942.2516257	0	 	;
41	945.509332	0.022670841	 	;
42	941.4209657	0.055407844	 	;
43	940.1751038	0.030041894	 	;
44	938.5304722	0	 	;
45	940	0.017603475	 	;
46	944.058428	0.052181065	 	;
47	953.4997417	0	 	;
48	943.1804746	0.091364949	 	;
49	953.5097602	0	 	;
5	942.8268219	0.017748149	 	;
50	941.8615631	0	 	;
6	942.5094259	0	 	;
7	941.3249349	0	 	;
8	942.3687684	0.03679591	 	;
9	944.1689695	0.0693888	 	;

[RESERVOIRS]
;ID	Head	Pattern
100	967.7674856	 	;

[TANKS]
;ID	Elevation	InitLevel	MinLevel	MaxLevel	Diameter	MinVol	VolCurve

[PIPES]
;ID	Node1	Node2	Length	Diameter	Roughness	MinorLoss	Status
1	100	47	106.01	76.2	0.0015	0	Open	;
10	33	34	40	76.2	0.0015	0	Open	;
11	32	10	7.1	76.2	0.0015	0	Open	;
12	31	9	127.56	76.2	0.0015	0	Open	;
13	30	5	178.96	76.2	0.0015	0	Open	;
14	29	30	11.2	76.2	0.0015	0	Open	;
15	28	29	3.4	76.2	0.0015	0	Open	;
16	27	50	3.99	152.4	0.0015	0	Open	;
17	27	4	8.77	76.2	0.0015	0	Open	;
18	26	49	366.49	76.2	0.0015	0	Open	;
19	4	25	487.1	76.2	0.0015	0	Open	;
2	14	1	1319.66	101.6	0.0015	0	Open	;
20	25	26	56.19	76.2	0.0015	0	Open	;
21	24	48	305.63	76.2	0.0015	0	Open	;
22	22	3	7	76.2	0.0015	0	Open	;
23	21	3	522.96	76.2	0.0015	0	Open	;
24	18	38	3.54	76.2	0.0015	0	Open	;
25	20	27	537.64	76.2	0.0015	0	Open	;
26	19	20	4	152.4	0.0015	0	Open	;
27	18	19	5.2	152.4	0.0015	0	Open	;
28	9	46	65.15	76.2	0.0015	0	Open	;
29	13	45	167.7	76.2	0.0015	0	Open	;
3	16	14	7.43	76.2	0.0015	0	Open	;
30	13	44	339.01	76.2	0.0015	0	Open	;
31	11	13	114.59	76.2	0.0015	0	Open	;
32	12	43	65.49	76.2	0.0015	0	Open	;
33	11	12	132.34	76.2	0.0015	0	Open	;
34	8	11	167.79	76.2	0.0015	0	Open	;
35	10	41	411.59	76.2	0.0015	0	Open	;
36	9	32	126.41	76.2	0.0015	0	Open	;
37	8	31	19.84	76.2	0.0015	0	Open	;
38	5	8	166.58	152.4	0.0015	0	Open	;
39	6	39	81.49	76.2	0.0015	0	Open	;
4	15	16	352.57	76.2	0.0015	0	Open	;
40	7	6	84.73	76.2	0.0015	0	Open	;
41	6	40	86.05	76.2	0.0015	0	Open	;
42	5	39	9.9	76.2	0.0015	0	Open	;
43	4	28	295.59	76.2	0.0015	0	Open	;
44	3	23	4.87	152.4	0.0015	0	Open	;
45	2	22	307.13	76.2	0.0015	0	Open	;
46	1	21	3.76	76.2	0.0015	0	Open	;
47	1	38	8	76.2	0.0015	0	Open	;
48	23	24	17.24	152.4	0.0015	0	Open	;
49	12	42	67.13	76.2	0.0015	0	Open	;
5	47	15	158.13	76.2	0.0015	0	Open	;
6	37	32	106.24	76.2	0.0015	0	Open	;
7	36	37	37.26	152.4	0.0015	0	Open	;
8	35	36	142.67	152.4	0.0015	0	Open	;
9	34	35	225	76.2	0.0015	0	Open	;

[PUMPS]
;ID	Node1	Node2	Parameters

[VALVES]
;ID	Node1	Node2	Diameter	Type	Setting	MinorLoss

[TAGS]

[DEMANDS]
;Junction	Demand	Pattern	Category

[STATUS]
;ID	Status/Setting

[PATTERNS]
;ID	M1	M2	M3	M4	M5	M6
1	0.620000004768372

[CURVES]
;ID	X-Value	Y-Value

[CONTROLS]

[RULES]

[ENERGY]
Global Efficiency	75
Global Price	0
Demand Charge	0

[EMITTERS]
;Junction	Coefficient
1	0	;
10	0	;
11	0	;
12	0	;
13	0	;
14	0	;
15	0	;
16	0	;
18	0	;
19	0	;
2	0	;
20	0	;
21	0	;
22	0	;
23	0	;
24	0	;
25	0	;
26	0	;
27	0	;
28	0	;
29	0	;
3	0	;
30	0	;
31	0	;
32	0	;
33	0	;
34	0	;
35	0	;
36	0	;
37	0	;
38	0	;
39	0	;
4	0	;
40	0	;
41	0	;
42	0	;
43	0	;
44	0	;
45	0	;
46	0	;
47	0	;
48	0	;
49	0	;
5	0	;
50	0	;
6	0	;
7	0	;
8	0	;
9	0	;

[QUALITY]
;Node	InitQual

[SOURCES]
;Node	Type	Quality	Pattern

[REACTIONS]
Order Bulk	1
Order Tank	1
Order Wall	1
Global Bulk	0
Global Wall	0
Limiting Potential	0

[REACTIONS]
;Var	Value

[MIXING]
;Tank	Model

[TIMES]
;Var	Value
Duration	00:15
Pattern Timestep	01:00
Hydraulic Timestep	01:00
Quality Timestep	0:05
Pattern Start	00:00
Report Timestep	01:00
Report Start	00:00
Start ClockTime	00:00
Statistic	None

[REPORT]
;Var	Value
Status	No
Summary	No
Page	0

[OPTIONS]
Units	LPS
HeadLoss	D-W
Specific Gravity	1
Viscosity	1
Trials	1000
Accuracy	0.001
Unbalanced	Continue 10
Pattern	1
Demand Multiplier	1
Emitter Exponent	0.5
Quality	None mg/L
Diffusivity	1
Tolerance	0.01

[COORDINATES]
;Node	X-Coord	Y-Coord
1	1106379.23	962028.53
10	1107204.34	962839.3
100	1105585.14	960662.95
11	1107114.73	963189.35
12	1107225.43	963117.66
13	1107172.49	963288.32
14	1105503.61	961061.26
15	1105340.82	960747.12
16	1105509.08	961056.23
18	1106390.48	962025.96
19	1106393.12	962030.44
2	1106394.19	962680.15
20	1106396.91	962029.19
21	1106380.96	962031.86
22	1106635.04	962489.58
23	1106643.16	962489.33
24	1106656.49	962487.24
25	1107100.71	962331.8
26	1107140.6	962292.24
27	1106657.3	962498.39
28	1106830.96	962748.33
29	1106833.83	962746.5
3	1106640.53	962485.23
30	1106840.06	962755.8
31	1107038.83	963028.71
32	1107208.62	962844.97
33	1107694.68	962601.04
34	1107656.58	962613.23
35	1107442.28	962681.79
36	1107330.19	962768.72
37	1107298.61	962788.51
38	1106387.03	962026.75
39	1106931.32	962909.7
4	1106662.01	962505.78
40	1107021.7	963050.7
41	1106956.32	962510.83
42	1107229.35	963064.21
43	1107272.77	963074.03
44	1106915.25	963421.11
45	1107257.77	963432.72
46	1107161.83	962959.13
47	1105489.04	960692.05
48	1106828.96	962739.56
49	1107339.81	961992.98
5	1106939.71	962904.45
50	1106660.69	962496.29
6	1106977.26	962977.02
7	1106910.47	963029.16
8	1107028.29	963045.53
9	1107108.34	962921.93

[VERTICES]
;Link	X-Coord	Y-Coord
33	1107180.28	963140.56
49	1107207.31	963088.58
32	1107250.22	963102.92
30	1107167.77	963290.7
30	1107141.67	963248.92
2	1105788.69	961457.93
2	1106294.93	961874.57
4	1105447.39	960963.42
1	1105582.84	960657.4
25	1106420.66	962072.4
25	1106516	962276.6
23	1106511.73	962284.13
48	1106645.78	962493.43
19	1106698.32	962505.73
19	1107008.65	962423.1
18	1107180.5	962252.68
18	1107234.22	962168.31
18	1107285.45	962126.49
12	1107099.06	962932.6
8	1107430.57	962685.54

[LABELS]
;X-Coord	Y-Coord	Label & Anchor Nodo

[BACKDROP]
;Var	Val1	Val2	Val3	Val4

[END]

