[TITLE]

[JUNCTIONS]
;ID	Elev	Demand	Pattern
1	973.152	0.029706789	Punto1todosdias	;
10	975	0.081983025	Punto2TodosDias	;
100	975	0.021219136	Punto1todosdias	;
101	975	0.024691358	Punto1todosdias	;
102	975	0.041087964	Punto1todosdias	;
103	975	0.032407407	Punto1todosdias	;
104	971.516	0	Punto1todosdias	;
105	971.825	0	Punto2TodosDias	;
106	971.804	0.016203704	Punto2TodosDias	;
107	972.422	0.110339508	Punto2TodosDias	;
108	972.381	0.09876543	Punto2TodosDias	;
109	972.391	0.030478394	Punto2TodosDias	;
11	973.493	0.156057099	Punto2TodosDias	;
110	972.457	0.058641976	Punto2TodosDias	;
111	971.895	0	Punto2TodosDias	;
112	972.11	0.072530864	Punto2TodosDias	;
113	973.026	0.189429012	Punto2TodosDias	;
114	973.055	0.377314818	Punto2TodosDias	;
115	973.045	0.128472222	Punto2TodosDias	;
116	973.585	0.08449074	Punto2TodosDias	;
117	973.578	0.130401234	Punto2TodosDias	;
118	973.547	0.027584877	Punto2TodosDias	;
119	974.141	0.067901232	Punto2TodosDias	;
12	970.538	0.065104165	Punto2TodosDias	;
120	974.335	0.122299384	Punto2TodosDias	;
121	973.863	0.107060185	Punto2TodosDias	;
122	973.839	0.07484568	Punto2TodosDias	;
123	973.541	0.088927468	Punto2TodosDias	;
124	973.052	0.033564816	Punto2TodosDias	;
125	973.092	0.052083336	Punto2TodosDias	;
126	973.075	0.02970679	Punto2TodosDias	;
127	972.982	0.087962964	Punto2TodosDias	;
128	973.196	0.13927469	Punto2TodosDias	;
129	973.106	0.02662037	Punto2TodosDias	;
13	970.045	0.1630015465	Punto1todosdias	;
130	973.291	0.075231481	Punto2TodosDias	;
131	973.472	0.08931327	Punto2TodosDias	;
132	973.371	0	Punto2TodosDias	;
133	973.365	0	Punto2TodosDias	;
134	973.324	0.055555556	Punto2TodosDias	;
135	973.162	0.043402778	Punto2TodosDias	;
136	973.042	0.148148151	Punto2TodosDias	;
137	972.689	0.224344135	Punto2TodosDias	;
138	972.274	0.050636575	Punto2TodosDias	;
139	972.221	0.1675829475	Punto2TodosDias	;
14	970.146	0.6088734444	Punto1todosdias	;
140	972.028	0.08053626625	Punto2TodosDias	;
141	971.355	0.0221836425	Punto2TodosDias	;
142	971.998	0.19314236	Punto2TodosDias	;
143	972.041	0.1666184425	Punto2TodosDias	;
144	972.401	0.130015434	Punto2TodosDias	;
145	972.357	0.093171296	Punto2TodosDias	;
146	972.152	0.264274693	Punto2TodosDias	;
147	970.966	0.010850695	Punto2TodosDias	;
148	970.777	0	Punto2TodosDias	;
149	970.495	0.03930362625	Punto2TodosDias	;
15	970.098	0.12287808325	Punto1todosdias	;
150	970.527	0	Punto2TodosDias	;
151	971.166	0.1523919775	Punto2TodosDias	;
152	971.161	0.0740258475	Punto2TodosDias	;
153	970.9	0.48837769825	Punto1todosdias	;
154	971.433	0.0933159725	Punto2TodosDias	;
155	971.516	0.025655864	Punto2TodosDias	;
156	971.623	0.124421299	Punto2TodosDias	;
157	971.933	0.13695987625	Punto2TodosDias	;
158	971.593	0.091820988	Punto2TodosDias	;
159	971.394	0.133873456	Punto1todosdias	;
16	970.609	0.23823301775	Punto1todosdias	;
160	971.371	0.094521606	Punto1todosdias	;
161	971.152	0.35985725425	Punto1todosdias	;
162	971.274	0.119984566	Punto1todosdias	;
163	971.926	0.288387349	Punto1todosdias	;
164	972.804	0.083912037	Punto2TodosDias	;
165	972.842	0.00617284	Punto2TodosDias	;
166	972.959	0.118827159	Punto2TodosDias	;
167	972.972	0.052276234	Punto2TodosDias	;
168	972.897	0.138695987	Punto2TodosDias	;
169	972.925	0.008101852	Punto2TodosDias	;
17	972.274	0	Punto2TodosDias	;
170	972.724	0.179783952	Punto2TodosDias	;
171	972.609	0.138310185	Punto2TodosDias	;
172	971.7	0.5216049436	Punto1todosdias	;
173	971.099	0.18619791775	Punto1todosdias	;
174	971.121	0	Punto1todosdias	;
175	971.072	0.615017364	Punto1todosdias	;
176	970.515	0.6112557815	Punto1todosdias	;
177	970.543	0.1454475295	Punto1todosdias	;
178	970.579	0.23384452325	Punto1todosdias	;
179	971.011	0.23697916775	Punto1todosdias	;
18	974.349	0.139660494	Punto2TodosDias	;
180	971.047	0	Punto1todosdias	;
181	970.88	0.099054787	Punto1todosdias	;
182	970.616	0.1084587205	Punto1todosdias	;
183	970.306	0.12162423325	Punto1todosdias	;
184	970.185	0.11472801275	Punto1todosdias	;
185	972.368	0.15470679	Punto1todosdias	;
186	972.674	0.03433642	Punto2TodosDias	;
187	972.701	0	Punto2TodosDias	;
188	972.497	0.293209877	Punto1todosdias	;
189	972.51	0.008101852	Punto1todosdias	;
19	970.362	0.095293211	Punto1todosdias	;
190	972.309	0.147955247	Punto1todosdias	;
191	972.277	0.054668211	Punto1todosdias	;
192	972.244	0.2146605006	Punto1todosdias	;
193	972.254	0.174537038	Punto1todosdias	;
194	972.248	0.2307098768	Punto1todosdias	;
195	972.25	0.2603009214	Punto1todosdias	;
196	972.075	0.2116512372	Punto1todosdias	;
197	972.04	0.2863811652	Punto1todosdias	;
198	971.959	0.2918981494	Punto1todosdias	;
199	971.684	0.182436345	Punto1todosdias	;
2	970.047	0	Punto1todosdias	;
20	971.179	0.167824075	Punto2TodosDias	;
200	971.348	0.676456404	Punto1todosdias	;
201	970.667	0.57928240825	Punto1todosdias	;
202	970.143	0.11284722475	Punto1todosdias	;
203	970	0.2582947575	Punto1todosdias	;
204	970.443	0.11033950525	Punto1todosdias	;
205	970.7	0.17115162025	Punto1todosdias	;
206	971.063	0.3115837205	Punto1todosdias	;
207	971.117	0.290268134	Punto1todosdias	;
208	971.656	0.6143904338	Punto1todosdias	;
209	972.139	0.3420524666	Punto1todosdias	;
21	971.977	0	Punto2TodosDias	;
210	972.276	0.249768519	Punto1todosdias	;
211	972.777	0.031828703	Punto1todosdias	;
212	972.761	0.050733024	Punto1todosdias	;
213	972.784	0.028549383	Punto1todosdias	;
214	972.764	0.6730709882	Punto1todosdias	;
215	972.377	0	Punto1todosdias	;
216	972.312	0	Punto1todosdias	;
217	972.154	1.07631173	Punto1todosdias	;
218	971.67	0.1354166658	Punto1todosdias	;
219	971.66	0.856385036	Punto1todosdias	;
22	970.828	0	Punto2TodosDias	;
220	971.141	0.33540702325	Punto1todosdias	;
221	971.059	0.06958912025	Punto1todosdias	;
222	972.158	0.239737654	Punto1todosdias	;
223	972.771	0.3891975308	Punto1todosdias	;
224	972.638	0.188580249	Punto1todosdias	;
225	972.596	0.2327160498	Punto1todosdias	;
226	970.482	0.35860339775	Punto1todosdias	;
227	970.017	0.034606481	Punto1todosdias	;
228	971.38	0.56486304225	Punto1todosdias	;
229	970.146	0	Punto1todosdias	;
23	971.123	0.09235146625	Punto2TodosDias	;
230	970.059	0.219425154	Punto1todosdias	;
231	970	0.48210840925	Punto1todosdias	;
2318	972.824	0.1304012346	Punto1todosdias	;
232	970	0.68962191025	Punto1todosdias	;
233	970.177	0.5115740695	Punto1todosdias	;
234	970.524	0.4300732995	Punto1todosdias	;
235	970.511	0	Punto1todosdias	;
236	970.394	0.65576775225	Punto1todosdias	;
237	975	0.218364194	Punto1todosdias	;
238	975	0.040509262	Punto1todosdias	;
239	975	0	Punto1todosdias	;
24	972.921	0.06905864	Punto2TodosDias	;
240	975	0.025462963	Punto1todosdias	;
241	975	0	Punto1todosdias	;
242	975	0.143711422	Punto1todosdias	;
243	975	0.015432098	Punto1todosdias	;
244	975	0.112847222	Punto1todosdias	;
245	975	0.080439815	Punto1todosdias	;
246	975	0.015432098	Punto1todosdias	;
247	974.457	0	Punto1todosdias	;
248	975	0	Punto1todosdias	;
249	975	0.027584876	Punto1todosdias	;
25	971.999	0	Punto2TodosDias	;
250	975	0.08622685	Punto1todosdias	;
251	975	0.128086418	Punto1todosdias	;
252	975	0.132330247	Punto1todosdias	;
253	975	0.157793211	Punto1todosdias	;
254	975	0.174575618	Punto1todosdias	;
255	975	0.047646607	Punto1todosdias	;
256	975	0.068672839	Punto1todosdias	;
257	975	0.160300927	Punto1todosdias	;
258	975	0.040123457	Punto1todosdias	;
259	975	0.034529322	Punto1todosdias	;
26	970.397	0.120370367	Punto1todosdias	;
260	975	0.025655865	Punto1todosdias	;
261	975	0.076388889	Punto1todosdias	;
262	975	0	Punto1todosdias	;
263	975	0	Punto1todosdias	;
264	975	0	Punto1todosdias	;
265	975	0	Punto1todosdias	;
266	975	0.016396605	Punto1todosdias	;
267	975	0.031442901	Punto1todosdias	;
268	975	0.090470679	Punto1todosdias	;
269	975	0.09220679	Punto1todosdias	;
27	971.885	0.035108026	Punto2TodosDias	;
270	975	0.070216049	Punto1todosdias	;
271	975	0.120756174	Punto1todosdias	;
272	975	0.039351851	Punto1todosdias	;
273	975	0.132523149	Punto1todosdias	;
274	975	0.139274693	Punto1todosdias	;
275	975	0.192901233	Punto1todosdias	;
276	974.884	0.108603395	Punto1todosdias	;
277	974.553	0.021990741	Punto1todosdias	;
278	974.463	0	Punto1todosdias	;
279	974.537	0.043402778	Punto1todosdias	;
28	973.568	0.30131173	Punto2TodosDias	;
280	974.737	0.181712962	Punto1todosdias	;
281	975	0.141975312	Punto2TodosDias	;
282	975	0	Punto2TodosDias	;
283	975	0.079089506	Punto2TodosDias	;
284	975	0.01890432	Punto2TodosDias	;
285	975	0.04976852	Punto2TodosDias	;
286	975	0.099537038	Punto2TodosDias	;
287	975	0	Punto2TodosDias	;
288	975	0.02507716	Punto2TodosDias	;
289	975	0.109953702	Punto2TodosDias	;
29	971.408	0	Punto2TodosDias	;
290	975	0.09138695875	Punto2TodosDias	;
291	975	0.0766782425	Punto2TodosDias	;
292	975	0.1208043975	Punto2TodosDias	;
293	975	0.02652391875	Punto2TodosDias	;
294	974.836	0.1111593375	Punto2TodosDias	;
295	974.791	0.0670331775	Punto2TodosDias	;
296	974.762	0.08680555625	Punto2TodosDias	;
297	974.939	0.015817901	Punto2TodosDias	;
298	974.9	0.119791666	Punto2TodosDias	;
299	974.885	0.12345679	Punto2TodosDias	;
3	974.411	0	Punto2TodosDias	;
30	971.684	0.13840663625	Punto2TodosDias	;
300	974.649	0.21677276125	Punto2TodosDias	;
301	974.483	0.103684415	Punto2TodosDias	;
302	974.44	0.07016782375	Punto2TodosDias	;
303	974.416	0	Punto2TodosDias	;
304	974.399	0.12176890375	Punto2TodosDias	;
305	974.927	0.08029513875	Punto2TodosDias	;
306	975	0.068721065	Punto2TodosDias	;
307	974.3	0.21749614125	Punto2TodosDias	;
308	974.129	0.0754726075	Punto2TodosDias	;
309	974.083	0.07595486	Punto2TodosDias	;
31	972.3	0.0441261575	Punto2TodosDias	;
310	974.053	0	Punto2TodosDias	;
311	974.034	0.07836612875	Punto2TodosDias	;
312	973.985	0.2033179	Punto2TodosDias	;
313	974.05	0.139660494	Punto2TodosDias	;
314	974.503	0.111496914	Punto2TodosDias	;
315	973.965	0.043981482	Punto2TodosDias	;
316	973.772	0.063078702	Punto2TodosDias	;
317	973.72	0.036265431	Punto2TodosDias	;
318	973.694	0.044560186	Punto2TodosDias	;
319	973.484	0.053819445	Punto2TodosDias	;
32	972.372	0.033564816	Punto2TodosDias	;
320	974.669	0.19405864	Punto2TodosDias	;
321	974.856	0.05377122	Punto2TodosDias	;
322	975	0.2035108	Punto2TodosDias	;
323	975	0.09548611125	Punto2TodosDias	;
324	975	0.07986111	Punto2TodosDias	;
325	975	0	Punto2TodosDias	;
326	975	0	Punto2TodosDias	;
327	974.925	0.070987655	Punto2TodosDias	;
328	974.694	0.03279321	Punto2TodosDias	;
329	974.66	0.015046296	Punto2TodosDias	;
33	973.662	0.05632716	Punto2TodosDias	;
330	974.577	0.056327161	Punto2TodosDias	;
331	974.537	0.038773148	Punto2TodosDias	;
332	974.218	0.096064817	Punto2TodosDias	;
333	973.909	0.040895063	Punto2TodosDias	;
334	973.872	0.058063273	Punto2TodosDias	;
335	973.817	0.082368828	Punto2TodosDias	;
336	973.515	0.055748458	Punto2TodosDias	;
337	973.456	0.028163581	Punto2TodosDias	;
338	973.249	0.149305554	Punto2TodosDias	;
339	973.772	0.124228397	Punto2TodosDias	;
34	970.069	0.31283758025	Punto1todosdias	;
340	973.866	0.033371914	Punto2TodosDias	;
341	973.644	0.08603395	Punto2TodosDias	;
342	973.013	0.126929012	Punto1todosdias	;
343	972.907	0.013310186	Punto1todosdias	;
344	973.279	0.082175926	Punto1todosdias	;
345	973.327	0.065200617	Punto1todosdias	;
346	973.465	0	Punto1todosdias	;
347	973.515	0.536844137	Punto1todosdias	;
348	973.769	0.051118827	Punto2TodosDias	;
349	973.821	0.004050926	Punto2TodosDias	;
35	970.757	0.334780095	Punto1todosdias	;
350	973.857	0.023726852	Punto2TodosDias	;
351	974.194	0.063271605	Punto2TodosDias	;
352	974.146	0.030864198	Punto2TodosDias	;
353	974.033	0	Punto1todosdias	;
354	974.254	0.259645064	Punto2TodosDias	;
355	974.644	0.007137346	Punto2TodosDias	;
356	974.4	0.032600309	Punto2TodosDias	;
357	974.684	0	Punto2TodosDias	;
358	973.858	0.124421296	Punto2TodosDias	;
359	973.712	0.01871142	Punto2TodosDias	;
36	970.518	0.18306327	Punto1todosdias	;
360	972.998	0	Punto1todosdias	;
361	973.753	0.078703704	Punto1todosdias	;
362	973.381	0.116126543	Punto1todosdias	;
363	974.243	0.157407408	Punto1todosdias	;
364	974.707	0.024112655	Punto2TodosDias	;
365	974.454	0.012345679	Punto2TodosDias	;
366	974.471	0.006558642	Punto2TodosDias	;
367	974.485	0.074459876	Punto2TodosDias	;
368	974.431	0	Punto2TodosDias	;
369	974.413	0	Punto2TodosDias	;
37	970.427	0.37803818975	Punto1todosdias	;
370	974.41	0	Punto1todosdias	;
371	975	0.162422838	Punto1todosdias	;
372	974.919	0.279320988	Punto2TodosDias	;
373	974.74	0.05169753	Punto2TodosDias	;
374	974.62	0.192129632	Punto2TodosDias	;
375	975	0	Punto1todosdias	;
376	972.286	0.1895833316	Punto1todosdias	;
377	970.92	0.47709298	Punto1todosdias	;
378	974.1	0	Punto1todosdias	;
379	974.127	0	Punto1todosdias	;
38	972.607	0.1619984574	Punto1todosdias	;
380	974.151	0.142746912	Punto1todosdias	;
381	974.064	0	Punto1todosdias	;
382	974.041	0	Punto1todosdias	;
383	973.409	0.021797839	Punto2TodosDias	;
384	973.168	0.063657406	Punto2TodosDias	;
385	973.21	0.065200615	Punto2TodosDias	;
386	970	0.08125	Punto1todosdias	;
387	974.081	0	Punto1todosdias	;
388	974.007	0	Punto1todosdias	;
389	974.087	0	Punto1todosdias	;
39	970.991	0	Punto1todosdias	;
390	975	0.095293208	Punto2TodosDias	;
391	971.678	0.17722800875	Punto2TodosDias	;
392	970	0.10218942825	Punto1todosdias	;
394	970.131	0	Punto1todosdias	;
395	974.093	0	Punto1todosdias	;
396	974.059	0	Punto1todosdias	;
397	974.07	0	Punto1todosdias	;
398	974.03	0	Punto1todosdias	;
399	972.417	0.02816358	Punto2TodosDias	;
4	974.404	0	Punto2TodosDias	;
40	974.166	0.048996912	Punto2TodosDias	;
400	972.296	0	Punto2TodosDias	;
401	973.641	0.057291667	Punto2TodosDias	;
402	973.402	0.05632716	Punto2TodosDias	;
403	970.942	0.24763695775	Punto1todosdias	;
404	974.106	0.117862655	Punto2TodosDias	;
405	971.574	0	Punto1todosdias	;
406	971.9	0.35421489025	Punto1todosdias	;
407	970.551	0.1414351848	Punto1todosdias	;
408	970	0.125385806	Punto1todosdias	;
409	970	0.2858796356	Punto1todosdias	;
41	974.948	0.02353395	Punto2TodosDias	;
410	970	0.1324074076	Punto1todosdias	;
411	970	0.1364197536	Punto1todosdias	;
412	970.869	0.1173611114	Punto1todosdias	;
413	973.887	0	Punto1todosdias	;
414	974.919	0.052662037	Punto2TodosDias	;
415	974.837	0	Punto1todosdias	;
416	974.688	0.008294753	Punto1todosdias	;
417	974.988	0.009452161	Punto1todosdias	;
418	975	0.017554012	Punto1todosdias	;
419	975	0.008873457	Punto1todosdias	;
42	974.621	0.014274692	Punto2TodosDias	;
420	975	0.04841821	Punto1todosdias	;
421	971.532	0	Punto1todosdias	;
422	971.84	0	Punto2TodosDias	;
423	974.273	0.016589506	Punto2TodosDias	;
424	971.957	0.08294753	Punto2TodosDias	;
425	970	0.03322723625	Punto1todosdias	;
426	970	0.042631173	Punto1todosdias	;
427	970	0	Punto1todosdias	;
428	972.306	0.33227237875	Punto1todosdias	;
429	971.642	0	Punto1todosdias	;
43	975	0.446952161	Punto2TodosDias	;
430	970	0	Punto1todosdias	;
431	975	0.319830247	Punto1todosdias	;
432	975	0.036651234	Punto1todosdias	;
433	975	0	Punto1todosdias	;
434	975	0.006365741	Punto2TodosDias	;
435	973.883	0.04533179	Punto2TodosDias	;
436	974.74	0.099537038	Punto2TodosDias	;
437	975	0.00916280875	Punto2TodosDias	;
438	974.732	0.072145062	Punto2TodosDias	;
439	973.099	0	Punto1todosdias	;
44	975	0.0894579475	Punto2TodosDias	;
440	974.382	0	Punto2TodosDias	;
441	975	0	Punto2TodosDias	;
442	975	0.00916280875	Punto2TodosDias	;
443	974.534	0	Punto1todosdias	;
444	975	0.009066358	Punto1todosdias	;
445	975	0	Punto1todosdias	;
446	973.822	0.008101852	Punto2TodosDias	;
447	973.319	0.005594136	Punto2TodosDias	;
448	972.668	0.005015432	Punto2TodosDias	;
449	973.764	0.010416667	Punto2TodosDias	;
45	974.966	0.043595679	Punto2TodosDias	;
450	972.91	0.021990741	Punto1todosdias	;
451	970.573	0	Punto1todosdias	;
452	972.374	0.055748457	Punto1todosdias	;
453	972.242	0	Punto1todosdias	;
454	971.953	0	Punto1todosdias	;
455	970.915	0	Punto1todosdias	;
456	973.594	0	Punto2TodosDias	;
457	970.964	0.0137442125	Punto2TodosDias	;
458	974.08	0	Punto1todosdias	;
459	973.388	0	Punto2TodosDias	;
46	974.555	0.138888888	Punto2TodosDias	;
460	972.992	0.0431327156	Punto1todosdias	;
461	974.03	0	Punto1todosdias	;
462	975	0.02662037	Punto2TodosDias	;
463	970	0.04827353375	Punto1todosdias	;
47	974.652	0.244212964	Punto2TodosDias	;
48	973.446	0	Punto2TodosDias	;
49	974.499	0.074074074	Punto2TodosDias	;
5	975	0.027006172	Punto1todosdias	;
50	973.546	0.074845678	Punto2TodosDias	;
51	970.516	0.293402772	Punto1todosdias	;
52	974.254	0.035493828	Punto2TodosDias	;
53	974.262	0.060378087	Punto2TodosDias	;
54	973.734	0.032793209	Punto2TodosDias	;
55	973.38	0.129050926	Punto2TodosDias	;
56	973.9	0.092206792	Punto2TodosDias	;
57	974.453	0.015046297	Punto2TodosDias	;
58	975	0.037037036	Punto2TodosDias	;
59	971.641	0.12914737875	Punto1todosdias	;
6	975	0.108024694	Punto2TodosDias	;
60	971.685	0.058931327	Punto1todosdias	;
61	970.092	0.0331018532	Punto1todosdias	;
62	970.117	0.0451388912	Punto1todosdias	;
63	970	0.25829475425	Punto1todosdias	;
64	970	0.146450616	Punto1todosdias	;
65	970	0.66329089775	Punto1todosdias	;
66	970	0.085262346	Punto1todosdias	;
67	970.062	0.0641975308	Punto1todosdias	;
68	970	0.1143518532	Punto1todosdias	;
69	970	0.1494598768	Punto1todosdias	;
7	975	0.032021606	Punto2TodosDias	;
70	971.056	0.60373263925	Punto1todosdias	;
71	975	0.047067902	Punto2TodosDias	;
72	975	0.129629628	Punto2TodosDias	;
73	975	0	Punto1todosdias	;
74	975	0.046682098	Punto2TodosDias	;
75	975	0.231867286	Punto2TodosDias	;
76	975	0.158179014	Punto2TodosDias	;
77	975	0.008680556	Punto1todosdias	;
78	975	0.021026234	Punto1todosdias	;
79	975	0.002314815	Punto1todosdias	;
8	975	0.07065007625	Punto2TodosDias	;
80	975	0.014274692	Punto1todosdias	;
81	975	0.023148147	Punto1todosdias	;
82	975	0.005979938	Punto1todosdias	;
83	975	0.011766976	Punto1todosdias	;
84	975	0.026041667	Punto1todosdias	;
85	975	0.020447531	Punto1todosdias	;
86	975	0	Punto1todosdias	;
87	974.199	0.025462964	Punto1todosdias	;
88	974.672	0.043016975	Punto2TodosDias	;
89	974.002	0	Punto1todosdias	;
9	975	0.069444443	Punto2TodosDias	;
90	974.094	0	Punto2TodosDias	;
91	974.646	0	Punto2TodosDias	;
92	974.979	0.041280864	Punto2TodosDias	;
93	975	0.032021606	Punto2TodosDias	;
94	974.862	0.031057099	Punto1todosdias	;
95	974.784	0.03125	Punto1todosdias	;
96	974.622	0.006365741	Punto1todosdias	;
97	974.476	0	Punto1todosdias	;
98	974.935	0.032021604	Punto1todosdias	;
99	975	0.009066358	Punto1todosdias	;

[RESERVOIRS]
;ID	Head	Pattern
393	1002	 	;
464	1002	 	;

[TANKS]
;ID	Elevation	InitLevel	MinLevel	MaxLevel	Diameter	MinVol	VolCurve

[PIPES]
;ID	Node1	Node2	Length	Diameter	Roughness	MinorLoss	Status
1	225	2318	60	76.2	0.0015	1.8	Open	;
10	9	8	51.45	76.2	0.0015	1.544	Open	;
100	94	363	145.28	76.2	0.0015	2.906	Open	;
101	95	415	10.46	76.2	0.0015	0.209	Open	;
102	96	416	9.19	76.2	0.0015	0.184	Open	;
103	97	279	11.92	76.2	0.0015	0.238	Open	;
104	98	417	9.849	76.2	0.0015	0.197	Open	;
105	99	418	11.4	76.2	0.0015	0.228	Open	;
106	100	419	8.421	76.2	0.0015	0.168	Open	;
107	101	420	12.21	76.2	0.0015	0.244	Open	;
108	102	267	5.2	76.2	0.0015	0.104	Open	;
109	103	240	22.42	76.2	0.0015	0.448	Open	;
11	10	291	4.01	76.2	0.0015	0.08	Open	;
110	104	421	14.726	76.2	0.0015	0.295	Open	;
111	105	106	8.67	76.2	0.0015	0.26	Open	;
112	106	108	68	76.2	0.0015	2.04	Open	;
113	27	105	37.43	76.2	0.0015	1.123	Open	;
114	107	115	54	76.2	0.0015	1.62	Open	;
115	108	114	61	76.2	0.0015	1.83	Open	;
116	109	108	9.07	76.2	0.0015	0.272	Open	;
117	107	109	36.93	76.2	0.0015	1.108	Open	;
118	110	107	46	101.6	0.0015	1.38	Open	;
119	21	27	45	76.2	0.0015	1.35	Open	;
12	11	337	10.44	76.2	0.0015	0.513	Open	;
120	111	422	5.29	76.2	0.0015	0.359	Open	;
121	25	111	11.47	76.2	0.0015	0.344	Open	;
122	32	25	37	76.2	0.0015	1.11	Open	;
123	112	110	23.651	76.2	0.0015	0.473	Open	;
124	110	113	60	76.2	0.0015	1.2	Open	;
125	24	32	60	76.2	0.0015	1.8	Open	;
126	113	117	63	76.2	0.0015	1.26	Open	;
127	114	123	58.6	76.2	0.0015	1.758	Open	;
128	113	115	54.91	76.2	0.0015	1.647	Open	;
129	115	124	33.745	76.2	0.0015	1.012	Open	;
13	12	151	47.07	76.2	0.0015	1.412	Open	;
130	116	117	12.64	76.2	0.0015	0.379	Open	;
131	117	118	89.4	76.2	0.0015	2.682	Open	;
132	117	33	26.83	101.6	0.0015	0.537	Open	;
133	118	123	9.8	76.2	0.0015	0.294	Open	;
134	33	119	31.23	101.6	0.0015	0.625	Open	;
135	119	423	13.94	76.2	0.0015	0.479	Open	;
136	120	121	71.06	76.2	0.0015	2.132	Open	;
137	121	131	67.208	76.2	0.0015	2.016	Open	;
138	122	121	10.2	76.2	0.0015	0.506	Open	;
139	123	122	58.7	76.2	0.0015	1.761	Open	;
14	13	392	43.2	76.2	0.0015	1.296	Open	;
140	123	128	103.65	76.2	0.0015	3.11	Open	;
141	124	114	9.345	76.2	0.0015	0.28	Open	;
142	114	125	92.77	76.2	0.0015	2.783	Open	;
143	125	126	10.33	76.2	0.0015	0.31	Open	;
144	126	127	12.28	76.2	0.0015	0.568	Open	;
145	127	137	62.72	76.2	0.0015	1.882	Open	;
146	128	130	52.52	76.2	0.0015	1.05	Open	;
147	129	128	35.58	76.2	0.0015	0.712	Open	;
148	126	129	11.86	76.2	0.0015	0.237	Open	;
149	130	133	11.677	76.2	0.0015	0.434	Open	;
15	14	203	162	76.2	0.0015	4.86	Open	;
150	131	132	10.416	76.2	0.0015	0.312	Open	;
151	132	133	14.726	76.2	0.0015	0.442	Open	;
152	133	134	12.51	76.2	0.0015	0.375	Open	;
153	134	384	65.3	76.2	0.0015	1.959	Open	;
154	135	167	80.42	76.2	0.0015	2.413	Open	;
155	136	135	11.348	76.2	0.0015	0.54	Open	;
156	137	136	91.95	76.2	0.0015	2.759	Open	;
157	137	399	80.1	76.2	0.0015	2.403	Open	;
158	31	126	87.1	76.2	0.0015	2.613	Open	;
159	17	31	14.5	76.2	0.0015	0.435	Open	;
16	15	176	61.7	76.2	0.0015	1.851	Open	;
160	138	139	58.72	76.2	0.0015	1.762	Open	;
161	139	143	84	76.2	0.0015	2.52	Open	;
162	140	17	11.498	76.2	0.0015	0.545	Open	;
163	141	23	51.454	76.2	0.0015	1.544	Open	;
164	23	22	86.6	76.2	0.0015	2.598	Open	;
165	22	148	10.46	101.6	0.0015	0.514	Open	;
166	142	139	11.187	76.2	0.0015	0.536	Open	;
167	139	137	97.85	76.2	0.0015	2.935	Open	;
168	143	157	10.828	76.2	0.0015	0.525	Open	;
169	144	145	7.45	76.2	0.0015	0.424	Open	;
17	16	179	81.223	76.2	0.0015	2.437	Open	;
170	145	146	84.64	76.2	0.0015	2.539	Open	;
171	146	163	94.2	76.2	0.0015	2.826	Open	;
172	143	144	7.45	76.2	0.0015	0.224	Open	;
173	144	164	82.88	76.2	0.0015	1.658	Open	;
174	30	424	36.081	76.2	0.0015	1.082	Open	;
175	20	30	54	76.2	0.0015	1.62	Open	;
176	147	20	9.78	76.2	0.0015	0.293	Open	;
177	148	12	82.24	76.2	0.0015	2.467	Open	;
178	149	19	98.3	76.2	0.0015	1.966	Open	;
179	150	149	98.3	76.2	0.0015	2.166	Open	;
18	17	138	9.78	76.2	0.0015	0.493	Open	;
180	151	154	51.22	101.6	0.0015	1.537	Open	;
181	152	151	11.4566	76.2	0.0015	0.544	Open	;
182	151	153	94	101.6	0.0015	2.82	Open	;
183	153	16	88	76.2	0.0015	2.64	Open	;
184	19	183	42.959	76.2	0.0015	0.859	Open	;
185	153	162	79.45	76.2	0.0015	2.384	Open	;
186	154	155	98.3	76.2	0.0015	2.949	Open	;
187	155	156	10.98	76.2	0.0015	0.529	Open	;
188	156	146	100.35	76.2	0.0015	3.01	Open	;
189	157	156	81.472	76.2	0.0015	2.444	Open	;
19	18	120	31.23	76.2	0.0015	0.937	Open	;
190	156	158	7.97	76.2	0.0015	0.239	Open	;
191	158	159	85.33	76.2	0.0015	2.56	Open	;
192	159	160	9.113	76.2	0.0015	0.273	Open	;
193	160	161	85.33	76.2	0.0015	2.56	Open	;
194	161	174	10.7618	76.2	0.0015	0.323	Open	;
195	162	159	15.2	76.2	0.0015	0.656	Open	;
196	159	163	95.35	76.2	0.0015	2.86	Open	;
197	163	185	91.062	76.2	0.0015	2.732	Open	;
198	146	171	91.023	76.2	0.0015	2.731	Open	;
199	164	165	6.994	76.2	0.0015	0.34	Open	;
2	1	362	38	76.2	0.0015	1.14	Open	;
20	19	153	68.8	76.2	0.0015	2.064	Open	;
200	165	166	11.026	101.6	0.0015	0.221	Open	;
201	166	11	95.2	76.2	0.0015	1.904	Open	;
202	167	166	10.38	76.2	0.0015	0.311	Open	;
203	166	169	10.589	76.2	0.0015	0.318	Open	;
204	168	170	75.96	76.2	0.0015	1.519	Open	;
205	169	168	8	76.2	0.0015	0.44	Open	;
206	170	187	9.53	76.2	0.0015	0.286	Open	;
207	171	170	10.877	76.2	0.0015	0.526	Open	;
208	170	338	94.15	76.2	0.0015	2.825	Open	;
209	163	172	93.65	76.2	0.0015	2.81	Open	;
21	20	152	77.997	76.2	0.0015	2.34	Open	;
210	172	218	10.74	76.2	0.0015	0.522	Open	;
211	161	172	98.1	76.2	0.0015	2.943	Open	;
212	172	217	92.022	76.2	0.0015	2.761	Open	;
213	173	175	77.621	76.2	0.0015	2.329	Open	;
214	174	173	6.268	76.2	0.0015	0.388	Open	;
215	175	206	96.275	101.6	0.0015	2.888	Open	;
216	175	207	12.425	76.2	0.0015	0.373	Open	;
217	176	175	101.4	76.2	0.0015	3.042	Open	;
218	177	176	41.703	76.2	0.0015	1.251	Open	;
219	176	51	97	76.2	0.0015	2.91	Open	;
22	21	112	6.849	76.2	0.0015	0.137	Open	;
220	178	177	37.237	76.2	0.0015	1.317	Open	;
221	16	178	11.06	76.2	0.0015	0.332	Open	;
222	179	180	6.467	76.2	0.0015	0.394	Open	;
223	180	161	11.71	76.2	0.0015	0.351	Open	;
224	181	35	32.16	76.2	0.0015	0.643	Open	;
225	35	182	55.78	76.2	0.0015	1.116	Open	;
226	182	184	58.127	76.2	0.0015	1.163	Open	;
227	183	184	47.041	76.2	0.0015	0.941	Open	;
228	184	229	10.316	76.2	0.0015	0.406	Open	;
229	185	188	13.438	76.2	0.0015	0.603	Open	;
23	22	147	10.22	76.2	0.0015	0.307	Open	;
230	186	188	75.2	76.2	0.0015	2.256	Open	;
231	187	186	10.457	76.2	0.0015	0.314	Open	;
232	188	189	8.1949	76.2	0.0015	0.246	Open	;
233	189	190	73.8151	76.2	0.0015	2.214	Open	;
234	190	191	9.89	76.2	0.0015	0.297	Open	;
235	191	192	12.23	76.2	0.0015	0.567	Open	;
236	192	193	91.17	76.2	0.0015	2.735	Open	;
237	193	194	11.33	76.2	0.0015	0.34	Open	;
238	194	195	89.77	76.2	0.0015	2.693	Open	;
239	195	196	95.01	76.2	0.0015	2.85	Open	;
24	23	142	86.013	76.2	0.0015	2.58	Open	;
240	196	197	11.09	76.2	0.0015	0.533	Open	;
241	197	198	25.468	101.6	0.0015	0.764	Open	;
242	198	199	86.763	76.2	0.0015	2.603	Open	;
243	199	60	7.796	76.2	0.0015	0.234	Open	;
244	197	200	107.3	76.2	0.0015	3.219	Open	;
245	200	201	106.4	76.2	0.0015	3.192	Open	;
246	201	202	104.3	76.2	0.0015	3.129	Open	;
247	202	13	35	76.2	0.0015	1.05	Open	;
248	63	203	22.926	76.2	0.0015	0.688	Open	;
249	203	425	18.724	76.2	0.0015	0.562	Open	;
25	24	113	54	76.2	0.0015	1.62	Open	;
250	203	426	17.69	76.2	0.0015	0.531	Open	;
251	37	14	70.8	76.2	0.0015	2.124	Open	;
252	62	61	7.41	76.2	0.0015	0.222	Open	;
253	66	427	11.84	76.2	0.0015	0.355	Open	;
254	64	66	22	76.2	0.0015	0.66	Open	;
255	69	64	22	76.2	0.0015	0.66	Open	;
256	68	69	22	76.2	0.0015	0.66	Open	;
257	65	37	90.1	76.2	0.0015	2.703	Open	;
258	201	204	70.76	76.2	0.0015	2.123	Open	;
259	204	37	8.84	76.2	0.0015	0.265	Open	;
26	25	21	41	76.2	0.0015	1.23	Open	;
260	205	201	10.13	76.2	0.0015	0.504	Open	;
261	206	221	7.725	76.2	0.0015	0.232	Open	;
262	207	208	12.425	76.2	0.0015	0.573	Open	;
263	208	209	92.3	76.2	0.0015	2.769	Open	;
264	209	193	11.33	76.2	0.0015	0.54	Open	;
265	193	210	11.33	76.2	0.0015	0.34	Open	;
266	210	214	82.27	76.2	0.0015	2.468	Open	;
267	211	214	93.344	76.2	0.0015	1.867	Open	;
268	212	211	10.156	76.2	0.0015	0.505	Open	;
269	213	212	11.058	76.2	0.0015	0.532	Open	;
27	26	236	10.784	76.2	0.0015	0.524	Open	;
270	214	223	100.65	76.2	0.0015	2.013	Open	;
271	215	212	76.646	101.6	0.0015	2.299	Open	;
272	212	360	46.465	101.6	0.0015	1.394	Open	;
273	216	215	10.24	76.2	0.0015	0.307	Open	;
274	191	216	8.014	76.2	0.0015	0.24	Open	;
275	217	191	12.478	76.2	0.0015	0.574	Open	;
276	218	208	91.36	76.2	0.0015	2.741	Open	;
277	208	219	103	76.2	0.0015	3.09	Open	;
278	219	228	124.06	76.2	0.0015	3.722	Open	;
279	220	219	90.104	76.2	0.0015	2.703	Open	;
28	12	150	4.83	76.2	0.0015	0.145	Open	;
280	221	220	14.596	76.2	0.0015	0.638	Open	;
281	219	222	94.34	76.2	0.0015	2.83	Open	;
282	222	195	11.56	76.2	0.0015	0.547	Open	;
283	195	376	10.95	76.2	0.0015	0.528	Open	;
284	223	224	95.417	76.2	0.0015	2.863	Open	;
285	224	38	8.38	76.2	0.0015	0.451	Open	;
286	38	225	7.1	76.2	0.0015	0.213	Open	;
287	225	428	107.9	76.2	0.0015	3.237	Open	;
288	59	60	8.05	76.2	0.0015	0.242	Open	;
289	70	59	102.25	76.2	0.0015	3.067	Open	;
29	27	107	54	76.2	0.0015	1.62	Open	;
290	226	70	92.84	76.2	0.0015	2.785	Open	;
291	227	2	6.614	76.2	0.0015	0.132	Open	;
292	104	429	15	76.2	0.0015	0.3	Open	;
293	200	70	94.2	76.2	0.0015	2.826	Open	;
294	228	200	9.94	76.2	0.0015	0.498	Open	;
295	51	235	5.85	76.2	0.0015	0.175	Open	;
296	229	15	91.284	76.2	0.0015	1.826	Open	;
297	15	34	103.4	76.2	0.0015	2.068	Open	;
298	34	230	11.214	76.2	0.0015	0.424	Open	;
299	230	231	200.586	76.2	0.0015	4.012	Open	;
3	2	104	305	76.2	0.0015	6.1	Open	;
30	28	24	71.5	76.2	0.0015	2.145	Open	;
300	231	430	100	76.2	0.0015	2	Open	;
301	232	231	40	76.2	0.0015	1.2	Open	;
302	233	232	55	76.2	0.0015	1.65	Open	;
303	234	233	169.923	76.2	0.0015	5.098	Open	;
304	235	234	8.427	76.2	0.0015	0.453	Open	;
305	26	235	22	76.2	0.0015	0.66	Open	;
306	236	232	187.216	76.2	0.0015	5.616	Open	;
307	237	431	588.03	76.2	0.0015	11.761	Open	;
308	238	237	11.97	76.2	0.0015	0.439	Open	;
309	239	285	64.98	76.2	0.0015	1.3	Open	;
31	29	141	15.346	76.2	0.0015	0.46	Open	;
310	240	238	52.788	76.2	0.0015	1.056	Open	;
311	238	239	8.33	76.2	0.0015	0.167	Open	;
312	240	432	9.58	101.6	0.0015	0.192	Open	;
313	78	240	40	76.2	0.0015	0.8	Open	;
314	79	78	43	101.6	0.0015	0.86	Open	;
315	80	79	43	76.2	0.0015	0.86	Open	;
316	81	80	43	76.2	0.0015	0.86	Open	;
317	241	81	43	76.2	0.0015	0.86	Open	;
318	242	241	11.83	76.2	0.0015	0.237	Open	;
319	82	243	12.08	76.2	0.0015	0.442	Open	;
32	30	391	10	76.2	0.0015	0.3	Open	;
320	243	242	31.92	76.2	0.0015	0.638	Open	;
321	244	245	80.28	76.2	0.0015	1.606	Open	;
322	245	246	30.77	76.2	0.0015	0.615	Open	;
323	246	419	7.808	76.2	0.0015	0.156	Open	;
324	247	278	8.135	101.6	0.0015	0.363	Open	;
325	248	375	18.87	76.2	0.0015	0.377	Open	;
326	5	248	11.168	76.2	0.0015	0.223	Open	;
327	100	5	33.83	76.2	0.0015	0.677	Open	;
328	101	100	44	76.2	0.0015	0.88	Open	;
329	249	101	36.04	76.2	0.0015	0.721	Open	;
33	28	116	57.36	76.2	0.0015	1.721	Open	;
330	99	249	8.96	76.2	0.0015	0.179	Open	;
331	98	99	43	76.2	0.0015	0.86	Open	;
332	95	98	44	76.2	0.0015	0.88	Open	;
333	250	417	9.17	76.2	0.0015	0.183	Open	;
334	251	250	49.981	76.2	0.0015	1	Open	;
335	252	251	43.5	76.2	0.0015	0.87	Open	;