[TITLE]

[JUNCTIONS]
;ID	Elev	Demand	Pattern
1	2825	0	1	;
10	2776	0	1	;
100	2785	2.4	1	;
101	2792	0.1	1	;
102	2766.15	1.3	1	;
103	2755	0.9	1	;
104	2746	1.1	1	;
105	2747	0.9	1	;
106	2730	0.3	1	;
107	2733	0.9	1	;
108	2743.6	0.6	1	;
109	2746	0.3	1	;
11	2770	0	1	;
110	2722	1.7	1	;
111	2754	0.9	1	;
112	2742	0.8	1	;
113	2695	0.7	1	;
114	2675	0.3	1	;
115	2703	0.7	1	;
116	2714	0.6	1	;
117	2680	0.9	1	;
118	2783	0.4	1	;
119	2781	0.4	1	;
12	2771	0	1	;
120	2777.36	0.6	1	;
121	2771	0.6	1	;
122	2769	0	1	;
123	2752	0.2	1	;
124	2753	0.4	1	;
125	2671.5	0	1	;
126	2763	0.7	1	;
127	2609	1.1	1	;
128	2605	0.6	1	;
129	2765	0.2	1	;
13	2779	0	1	;
130	2700	0.6	1	;
131	2698	0.2	1	;
132	2700	1.3	1	;
133	2770	0	1	;
134	2771	0	1	;
135	2779	0.4	1	;
136	2784	1.4	1	;
137	2789	2.2	1	;
138	2778	1.2	1	;
139	2782	1.7	1	;
14	2784	0	1	;
140	2800	58.1	1	;
141	2722	0.7	1	;
142	2724.3	0.1	1	;
143	2612	0.2	1	;
144	2710	0.4	1	;
145	2723	0.1	1	;
15	2789	0	1	;
16	2778	0	1	;
17	2782	0	1	;
18	2758	1.2	1	;
19	2760	11.2	1	;
2	2822	0	1	;
20	2735	0.4	1	;
21	2736.25	1.6	1	;
22	2725.71	0.2	1	;
23	2695	0.4	1	;
24	2689	0.5	1	;
25	2663.8	0.6	1	;
26	2653	0.3	1	;
27	2650	1.1	1	;
28	2634	1.9	1	;
29	2619	2	1	;
3	2812	0	1	;
30	2719	2	1	;
31	2758	0.6	1	;
32	2783.8	9.5	1	;
33	2780	0.9	1	;
34	2769	0.2	1	;
35	2764.5	0.4	1	;
36	2743.63	1.6	1	;
37	2730	1.6	1	;
38	2721	0.9	1	;
39	2723	0.7	1	;
4	2800	0	1	;
40	2730	1.2	1	;
41	2710	1	1	;
42	2704.66	0.8	1	;
43	2685	0.2	1	;
44	2693.84	0.6	1	;
45	2678	0.8	1	;
46	2688	1.5	1	;
47	2656.79	1.7	1	;
48	2629	3.2	1	;
49	2678	1	1	;
5	2782	0	1	;
50	2661	1.7	1	;
51	2648	0.3	1	;
52	2649	0.4	1	;
53	2640	1	1	;
54	2646.25	0.1	1	;
55	2655	0.1	1	;
56	2640	1	1	;
57	2632	0.5	1	;
58	2645	0.2	1	;
59	2643	0.1	1	;
6	2781	0	1	;
60	2630	0.6	1	;
61	2633.3	0.1	1	;
62	2615	0.9	1	;
63	2612	0.9	1	;
64	2612	0.2	1	;
65	2622.7	0.6	1	;
66	2627.2	0.4	1	;
67	2743	3	1	;
68	2743	1.7	1	;
69	2747	1.7	1	;
7	2765	0	1	;
70	2727	1.7	1	;
71	2734	1.7	1	;
72	2715	0.7	1	;
73	2701.8	0	1	;
74	2681.5	1	1	;
75	2705	0	1	;
76	2690	0.4	1	;
77	2681	0.5	1	;
78	2686	1.3	1	;
79	2670	2.7	1	;
8	2763	0	1	;
80	2657.7	0.7	1	;
81	2662	0.6	1	;
82	2651.87	0.3	1	;
83	2656.6	0.5	1	;
84	2652	0.3	1	;
85	2655.7	0.5	1	;
86	2691	0.5	1	;
87	2720	0.6	1	;
88	2712.66	0.5	1	;
89	2735	0.4	1	;
9	2778	0	1	;
90	2731	0.3	1	;
91	2752	0.9	1	;
92	2795	0	1	;
93	2776	0	1	;
94	2787.5	0	1	;
95	2778	0	1	;
96	2792	0	1	;
97	2780	0	1	;
98	2789	-7.3	1	;
99	2769.3	1	1	;

[RESERVOIRS]
;ID	Head	Pattern
146	2850	 	;

[TANKS]
;ID	Elevation	InitLevel	MinLevel	MaxLevel	Diameter	MinVol	VolCurve

[PIPES]
;ID	Node1	Node2	Length	Diameter	Roughness	MinorLoss	Status
1	1	2	18.736	406.4	0.0015	0.5	Open	;
10	10	11	34.398	203.2	0.0015	0.8	Open	;
100	89	90	25.845	101.6	0.0015	0.4	Open	;
101	88	89	97.107	76.2	0.0015	1.6	Open	;
102	87	88	63.967	76.2	0.0015	1.4	Open	;
103	144	87	53.134	101.6	0.0015	1.5	Open	;
104	86	73	43.448	76.2	0.0015	2.4	Open	;
105	91	102	95.858	101.6	0.0015	1.8	Open	;
106	99	100	114.314	152.4	0.0015	2.1	Open	;
107	100	101	49.865	76.2	0.0015	0.8	Open	;
108	100	102	188.085	152.4	0.0015	110	Open	;
109	102	103	69.845	76.2	0.0015	3.7	Open	;
11	11	12	15.494	152.4	0.0015	0.5	Open	;
110	103	104	124.929	76.2	0.0015	2.7	Open	;
111	104	105	98.119	152.4	0.0015	2.4	Open	;
112	105	106	92.57	76.2	0.0015	1.5	Open	;
113	106	107	23.153	76.2	0.0015	0.4	Open	;
114	107	108	113.45	76.2	0.0015	2.8	Open	;
115	109	110	76.875	76.2	0.0015	1.5	Open	;
116	110	130	198.658	76.2	0.0015	3600	Open	;
117	115	141	117.604	76.2	0.0015	3700	Open	;
118	115	116	152.386	76.2	0.0015	3.9	Open	;
119	130	131	18.862	76.2	0.0015	1	Open	;
12	12	13	107.786	254	0.0015	1.8	Open	;
120	131	132	111.981	76.2	0.0015	2.7	Open	;
121	132	113	89.755	76.2	0.0015	2.7	Open	;
122	131	117	114.535	76.2	0.0015	2.5	Open	;
123	114	115	197.216	76.2	0.0015	4.4	Open	;
124	130	114	112.59	101.6	0.0015	2.1	Open	;
125	110	111	214.155	101.6	0.0015	4.4	Open	;
126	111	112	27.123	76.2	0.0015	0.5	Open	;
127	112	129	158.02	101.6	0.0015	2.6	Open	;
128	145	21	154.551	76.2	0.0015	1.5	Open	;
129	124	126	85.692	76.2	0.0015	3.2	Open	;
13	13	14	39.487	101.6	0.0015	0.7	Open	;
130	100	126	98.991	101.6	0.0015	2.5	Open	;
131	1	146	26.137	406.4	0.0015	0.3	Open	;
132	34	35	37.772	152.4	0.0015	0.6	Open	;
133	108	109	16.025	76.2	0.0015	0.3	Open	;
134	118	119	166.328	203.2	0.0015	4.2	Open	;
135	119	120	77.833	101.6	0.0015	1.6	Open	;
136	120	121	57.819	101.6	0.0015	1.6	Open	;
137	121	122	24.134	101.6	0.0015	0.9	Open	;
138	122	123	93.04	152.4	0.0015	0.8	Open	;
139	123	124	26.811	152.4	0.0015	0.4	Open	;
14	14	15	210.024	203.2	0.0015	5	Open	;
140	10	133	33.708	304.8	0.0015	0.8	Open	;
141	133	134	15.494	304.8	0.0015	0.5	Open	;
142	134	135	107.786	254	0.0015	1.8	Open	;
143	135	136	39.487	304.8	0.0015	0.7	Open	;
144	136	137	210.024	406.4	0.0015	5	Open	;
145	137	138	80.058	203.2	0.0015	1.8	Open	;
146	138	139	115.569	304.8	0.0015	2.8	Open	;
147	17	140	79.424	152.4	0.0015	2.8	Open	;
148	118	129	119.149	76.2	0.0015	1	Open	;
149	64	143	3.734	76.2	0.0015	0.5	Open	;
15	15	16	80.058	203.2	0.0015	1.8	Open	;
150	125	26	55.354	76.2	0.0015	1	Open	;
16	16	17	115.569	254	0.0015	2.8	Open	;
17	139	18	143.318	457.2	0.0015	3.8	Open	;
18	18	19	38.21	203.2	0.0015	0.9	Open	;
19	19	20	112.807	101.6	0.0015	950	Open	;
2	2	3	32.345	254	0.0015	0.5	Open	;
20	20	21	54.056	101.6	0.0015	1.2	Open	;
21	21	22	61.25	76.2	0.0015	1.2	Open	;
22	22	23	147.011	76.2	0.0015	2.4	Open	;
23	23	24	43.056	76.2	0.0015	1	Open	;
24	24	25	104.116	76.2	0.0015	800	Open	;
25	125	25	56.067	76.2	0.0015	1.5	Open	;
26	26	27	68.592	76.2	0.0015	1.1	Open	;
27	26	28	209.73	76.2	0.0015	2.7	Open	;
28	28	29	262.011	76.2	0.0015	4.9	Open	;
29	142	30	37.672	76.2	0.0015	6.3	Open	;
3	3	4	28.215	203.2	0.0015	0.5	Open	;
30	30	36	221.085	101.6	0.0015	1100	Open	;
31	19	31	63.774	304.8	0.0015	1.6	Open	;
32	31	32	113.946	254	0.0015	1.9	Open	;
33	32	33	27.961	152.4	0.0015	0.7	Open	;
34	33	34	74.29	76.2	0.0015	1.5	Open	;
35	35	36	153.026	254	0.0015	300	Open	;
36	36	37	57.758	203.2	0.0015	1.5	Open	;
37	37	38	77.089	76.2	0.0015	2.1	Open	;
38	38	39	24.243	152.4	0.0015	0.4	Open	;
39	39	40	131.824	203.2	0.0015	2.7	Open	;
4	4	5	70.865	457.2	0.0015	1.2	Open	;
40	40	41	140.641	76.2	0.0015	2.9	Open	;
41	40	42	99.196	101.6	0.0015	200	Open	;
42	42	43	143.629	76.2	0.0015	2.4	Open	;
43	47	46	166.944	101.6	0.0015	0.9	Open	;
44	43	49	43.235	76.2	0.0015	0.9	Open	;
45	45	46	97.526	76.2	0.0015	2.2	Open	;
46	44	45	134.062	76.2	0.0015	2.5	Open	;
47	41	44	74.631	101.6	0.0015	2700	Open	;
48	141	110	1.414	76.2	0.0015	0.6	Open	;
49	49	50	113.224	76.2	0.0015	2.7	Open	;
5	5	6	101.128	355.6	0.0015	1.7	Open	;
50	50	48	221.973	76.2	0.0015	3500	Open	;
51	50	51	53.037	76.2	0.0015	1.1	Open	;
52	51	52	15.847	76.2	0.0015	0.3	Open	;
53	52	53	69.598	152.4	0.0015	500	Open	;
54	48	127	123.403	76.2	0.0015	2.6	Open	;
55	66	128	91.466	76.2	0.0015	4.2	Open	;
56	65	66	70.382	76.2	0.0015	1.5	Open	;
57	65	127	150.764	76.2	0.0015	4	Open	;
58	143	66	62.606	76.2	0.0015	1.3	Open	;
59	63	64	97.9	152.4	0.0015	2.4	Open	;
6	6	7	70.081	457.2	0.0015	1.2	Open	;
60	53	54	94.518	76.2	0.0015	2.9	Open	;
61	79	55	34.703	76.2	0.0015	500	Open	;
62	63	56	135.014	101.6	0.0015	1.7	Open	;
63	56	53	2.062	101.6	0.0015	0.8	Open	;
64	57	58	89.142	76.2	0.0015	2.4	Open	;
65	58	59	85.536	76.2	0.0015	1.6	Open	;
66	59	61	64.871	76.2	0.0015	1.3	Open	;
67	61	62	143.796	76.2	0.0015	3.6	Open	;
68	59	60	63.406	101.6	0.0015	1.4	Open	;
69	60	63	235.293	76.2	0.0015	6.2	Open	;
7	7	8	43.707	254	0.0015	0.7	Open	;
70	32	92	106.254	203.2	0.0015	2	Open	;
71	93	92	97.066	203.2	0.0015	2.4	Open	;
72	93	94	112.399	254	0.0015	2.1	Open	;
73	94	95	64.814	152.4	0.0015	1.6	Open	;
74	95	96	81.844	152.4	0.0015	1.6	Open	;
75	96	97	65.374	152.4	0.0015	1.6	Open	;
76	97	98	62.759	101.6	0.0015	1.5	Open	;
77	98	99	88.272	203.2	0.0015	2.1	Open	;
78	40	67	123.521	101.6	0.0015	3.2	Open	;
79	67	68	120.984	76.2	0.0015	3.5	Open	;
8	8	9	69.342	304.8	0.0015	1.2	Open	;
80	68	69	35.268	76.2	0.0015	0.8	Open	;
81	69	70	170.768	101.6	0.0015	3	Open	;
82	70	71	55.227	76.2	0.0015	1.2	Open	;
83	71	72	112.646	76.2	0.0015	2.9	Open	;
84	72	73	118.595	76.2	0.0015	2.2	Open	;
85	73	74	89.344	76.2	0.0015	1	Open	;
86	74	75	135.766	76.2	0.0015	2.3	Open	;
87	75	76	65.979	76.2	0.0015	1	Open	;
88	76	85	157.102	76.2	0.0015	3.1	Open	;
89	85	84	122.938	76.2	0.0015	3	Open	;
9	9	10	31.283	406.4	0.0015	0.5	Open	;
90	84	83	30.563	76.2	0.0015	0.5	Open	;
91	83	82	93.413	76.2	0.0015	1.9	Open	;
92	82	81	54.535	76.2	0.0015	1.2	Open	;
93	81	80	58.777	76.2	0.0015	1.3	Open	;
94	79	80	86.936	76.2	0.0015	1.6	Open	;
95	78	79	139.937	76.2	0.0015	2.5	Open	;
96	77	78	27.02	101.6	0.0015	0.5	Open	;
97	76	77	88.199	76.2	0.0015	2.3	Open	;
98	69	91	128.035	76.2	0.0015	2.6	Open	;
99	90	91	105.434	76.2	0.0015	2	Open	;

[PUMPS]
;ID	Node1	Node2	Parameters

[VALVES]
;ID	Node1	Node2	Diameter	Type	Setting	MinorLoss

[TAGS]

[DEMANDS]
;Junction	Demand	Pattern	Category

[STATUS]
;ID	Status/Setting

[PATTERNS]
;ID	M1	M2	M3	M4	M5	M6
1	0.275981058906977
1	0.24890196844186
1	0.225845251925
1	0.200294328940298
1	0.16988087341791
1	0.138700692058824
1	0.104453607352941
1	0.171425683333333
1	0.33961692
1	0.70707129295082
1	1.07452566590164
1	1.75491845285714
1	1.73400398421053
1	1.47865291631579
1	1.45287691238994
1	1.47301592125786
1	1.49315493012579
1	1.51329393899371
1	1.53343294786164
1	1.39095277773913
1	1.106180826
1	1.159549199
1	1.212917572
1	1.728407540125
1	1.89826375277953
1	1.79970226183465
1	1.70114077088976
1	1.60257927994488
1	1.504017789
1	1.300247637
1	1.096477485
1	1.0042957495
1	0.912114014
1	0.907262344
1	0.902410674
1	1.00914742
1	1.115884166
1	1.09349184215385
1	1.07922710225926
1	1.06844561262963
1	1.057664123
1	0.892707333
1	0.727750543
1	0.625865467
1	0.523980391
1	0.478964893680412
1	0.433949396360825
1	0.388933899041237

[CURVES]
;ID	X-Value	Y-Value

[CONTROLS]

[RULES]

[ENERGY]
Global Efficiency	75
Global Price	0
Demand Charge	0

[EMITTERS]
;Junction	Coefficient
1	0	;
10	0	;
100	0	;
101	0	;
102	0	;
103	0	;
104	0	;
105	0	;
106	0	;
107	0	;
108	0	;
109	0	;
11	0	;
110	0	;
111	0	;
112	0	;
113	0	;
114	0	;
115	0	;
116	0	;
117	0	;
118	0	;
119	0	;
12	0	;
120	0	;
121	0	;
122	0	;
123	0	;
124	0	;
125	0	;
126	0	;
127	0	;
128	0	;
129	0	;
13	0	;
130	0	;
131	0	;
132	0	;
133	0	;
134	0	;
135	0	;
136	0	;
137	0	;
138	0	;
139	0	;
14	0	;
140	0	;
141	0	;
142	0	;
143	0	;
144	0	;
145	0	;
15	0	;
16	0	;
17	0	;
18	0	;
19	0	;
2	0	;
20	0	;
21	0	;
22	0	;
23	0	;
24	0	;
25	0	;
26	0	;
27	0	;
28	0	;
29	0	;
3	0	;
30	0	;
31	0	;
32	0	;
33	0	;
34	0	;
35	0	;
36	0	;
37	0	;
38	0	;
39	0	;
4	0	;
40	0	;
41	0	;
42	0	;
43	0	;
44	0	;
45	0	;
46	0	;
47	0	;
48	0	;
49	0	;
5	0	;
50	0	;
51	0	;
52	0	;
53	0	;
54	0	;
55	0	;
56	0	;
57	0	;
58	0	;
59	0	;
6	0	;
60	0	;
61	0	;
62	0	;
63	0	;
64	0	;
65	0	;
66	0	;
67	0	;
68	0	;
69	0	;
7	0	;
70	0	;
71	0	;
72	0	;
73	0	;
74	0	;
75	0	;
76	0	;
77	0	;
78	0	;
79	0	;
8	0	;
80	0	;
81	0	;
82	0	;
83	0	;
84	0	;
85	0	;
86	0	;
87	0	;
88	0	;
89	0	;
9	0	;
90	0	;
91	0	;
92	0	;
93	0	;
94	0	;
95	0	;
96	0	;
97	0	;
98	0	;
99	0	;

[QUALITY]
;Node	InitQual

[SOURCES]
;Node	Type	Quality	Pattern

[REACTIONS]
Order Bulk	1
Order Tank	1
Order Wall	1
Global Bulk	0
Global Wall	0
Limiting Potential	0

[REACTIONS]
;Var	Value

[MIXING]
;Tank	Model

[TIMES]
;Var	Value
Duration	00:15
Pattern Timestep	00:30
Hydraulic Timestep	00:30
Quality Timestep	0:05
Pattern Start	00:00
Report Timestep	00:30
Report Start	00:00
Start ClockTime	00:00
Statistic	None

[REPORT]
;Var	Value
Status	No
Summary	No
Page	0

[OPTIONS]
Units	LPS
HeadLoss	D-W
Specific Gravity	1
Viscosity	1
Trials	1000
Accuracy	0.001
Unbalanced	Continue 10
Pattern	1
Demand Multiplier	1
Emitter Exponent	0.5
Quality	None mg/L
Diffusivity	1
Tolerance	0.01

[COORDINATES]
;Node	X-Coord	Y-Coord
1	2702.7	634.3
10	2560.3	956.7
100	1482.6	1592.8
101	1502	1547.4
102	1409.1	1764.9
103	1382	1828.3
104	1316.5	1722.3
105	1325.5	1624.6
106	1242.5	1587.3
107	1252	1566.4
108	1156.3	1506.4
109	1165.5	1493.5
11	2584.3	980.6
110	1104.2	1453.8
111	1207.4	1268.9
112	1187.1	1255.5
113	1167.5	1689.9
114	908.4	1559.3
115	1005.6	1390
116	1089.7	1263.4
117	933.1	1735.1
118	1358.8	1126.7
119	1308.1	1285.1
12	2571.8	989.7
120	1296	1361.9
121	1344	1393.5
122	1364.48	1406.11
123	1328.57	1490.24
124	1318.68	1515.14
125	2521.3	1491.5
126	1393.5	1555.7
127	2325.2	2149.3
128	2259.65	2205.5
129	1242.32	1109.24
13	2465.1	1002.7
130	999.2	1621
131	990.1	1637.4
132	1079.2	1705.2
133	2583.3	980.6
134	2570.8	989.7
135	2464.1	1002.7
136	2439.4	972.3
137	2233.7	1014.4
138	2168.2	1059.1
139	2141.2	1171.4
14	2440.4	972.3
140	2069.17	1145.89
141	1103.2	1452.8
142	2179.1	1581
143	2173	2270
144	1320	2000
145	2185	1582
146	2697.66	628.58
15	2234.7	1014.4
16	2169.2	1059.1
17	2142.2	1171.4
18	2109.1	1309
19	2111.2	1347.1
2	2688.8	646.5
20	2217.2	1376.5
21	2207.7	1429.7
22	2267.3	1439.1
23	2390.5	1513.2
24	2423.9	1486.7
25	2506.4	1545
26	2572.9	1499.2
27	2620.6	1548.4
28	2450.3	1668.3
29	2662.9	1820.7
3	2707.4	671
30	2173.28	1617.84
31	2101.5	1410.1
32	1992.1	1391.4
33	1987.4	1418.7
34	2059.8	1431.2
35	2053.1	1468.1
36	1956.1	1584.6
37	1947.1	1640
38	1935	1715.6
39	1914.7	1728.7
4	2718.9	693.8
40	1890	1858
41	2026.8	1883.8
42	1872	1952.2
43	2011.9	1978.1
44	2016.3	1955.9
45	2149.2	1948.2
46	2170.7	1853.6
47	2334.7	1854.1
48	2335.9	2028
49	2004.4	2020.1
5	2759.8	748.8
50	2116.3	2023.1
51	2112.8	2074.4
52	2097	2073.7
53	2083.6	2141.4
54	1989.5	2135.1
55	1744.1	2271.5
56	2085.6	2141.9
57	1928.1	2192.1
58	1843.1	2215.6
59	1779	2272.2
6	2689.1	821.1
60	1841	2274.9
61	1806.6	2330.1
62	1946.8	2356.3
63	2075.6	2273.6
64	2173.5	2273.7
65	2175.4	2139.2
66	2171	2209.3
67	1769.3	1835.2
68	1650.1	1855.9
69	1616.4	1846.3
7	2671.8	887.1
70	1595.5	2014.6
71	1542.7	2000
72	1510.3	2106.2
73	1398.4	2069.2
74	1372.3	2152.2
75	1498.5	2196.4
76	1475	2256.2
77	1561.8	2269
78	1575.9	2246.5
79	1713.9	2263.3
8	2637.1	913.6
80	1705	2348.9
81	1646.8	2341.9
82	1639.6	2395
83	1546.9	2384.5
84	1543.3	2414.5
85	1421.3	2399.8
86	1359.6	2052.9
87	1340	1951.8
88	1399	1975.4
89	1434.7	1887.9
9	2570.8	927.3
90	1458.4	1897.4
91	1496.6	1801.4
92	1888	1373.3
93	1871.8	1467.1
94	1761.6	1448.2
95	1749.7	1511.2
96	1670.2	1497.7
97	1659.7	1561.1
98	1598.4	1551.1
99	1587.1	1636.4

[VERTICES]
;Link	X-Coord	Y-Coord

[LABELS]
;X-Coord	Y-Coord	Label & Anchor Nodo

[BACKDROP]
;Var	Val1	Val2	Val3	Val4

[END]

