[TITLE]

[JUNCTIONS]
;ID	Elev	Demand	Pattern
1	949.3530206	0	todoslosdías	;
10	950.2241433	0	todoslosdías	;
100	954.7457776	0.043322402	todoslosdías	;
101	955.5383256	0.01257073	todoslosdías	;
102	955.011	0.018989081	todoslosdías	;
103	951.4551923	0.164600285	todoslosdías	;
104	953.6986537	0.046231995	todoslosdías	;
105	955.1469589	0.039289012	todoslosdías	;
106	954.6877241	0.086315995	todoslosdías	;
107	950.8911905	0.098663555	todoslosdías	;
108	948.6308279	0.068420021	todoslosdías	;
109	954.2543983	0.033564815	todoslosdías	;
11	952.074586	0	todoslosdías	;
110	954.5381027	0.015031683	todoslosdías	;
111	957.3893693	0.033417216	todoslosdías	;
112	956.334774	0.077803499	todoslosdías	;
113	951.2833854	0.025739163	todoslosdías	;
114	955.968229	0.047062057	todoslosdías	;
115	958.8419634	0.025262756	todoslosdías	;
116	952.0753639	0.04732072	todoslosdías	;
117	955.8646341	0.030523698	todoslosdías	;
118	961.3680526	0.025185301	todoslosdías	;
119	959.3528344	0.003761574	todoslosdías	;
12	955.9413518	0	todoslosdías	;
120	960.6344183	0.004710005	todoslosdías	;
121	960.8343491	0	todoslosdías	;
122	961.3012327	0	todoslosdías	;
123	955.174	0.143024576	todoslosdías	;
124	955.912371	0.126177867	todoslosdías	;
125	954.5044812	0.068341108	todoslosdías	;
126	950.261	0.081789539	todoslosdías	;
127	950.6125684	0.019140855	todoslosdías	;
128	949.0897803	0.065761784	todoslosdías	;
129	950.2427033	0.123168899	todoslosdías	;
13	954.9477758	0	todoslosdías	;
130	953.0964533	0.258697797	todoslosdías	;
131	948.5626715	0.04311927	todoslosdías	;
132	946.724869	0.048241383	todoslosdías	;
133	948.174159	0.025214529	todoslosdías	;
134	948.5452035	0.064220912	todoslosdías	;
135	954.3870473	0.015689301	todoslosdías	;
136	954.987176	0.094200103	todoslosdías	;
137	953.9122587	0.03631999	todoslosdías	;
138	953.1359838	0.077942329	todoslosdías	;
139	952.96378	0.115135731	todoslosdías	;
14	955.0554856	0.004533179	todoslosdías	;
140	953.9132898	0.023089693	todoslosdías	;
141	946.5683036	0.119541772	todoslosdías	;
142	947.415624	0.070457176	todoslosdías	;
143	947.5642412	0.10983241	todoslosdías	;
144	957.4250087	0.026075279	todoslosdías	;
145	957.001659	0.055459105	todoslosdías	;
146	948.6133957	0.041264789	todoslosdías	;
147	948.6549718	0.005031507	todoslosdías	;
148	948.6940381	0.03200553	todoslosdías	;
149	948.8387947	0.078724163	todoslosdías	;
15	955.3344161	0.016750257	todoslosdías	;
150	950.017	0.014279075	todoslosdías	;
151	950.017	0.0042789	todoslosdías	;
152	950.017	0.095190913	todoslosdías	;
153	950.5160587	0.027139158	todoslosdías	;
154	951.7378307	0.019274049	todoslosdías	;
155	950.017	0.048305686	todoslosdías	;
156	949.2300133	0.107725111	todoslosdías	;
157	947.5406848	0.135587645	todoslosdías	;
158	949.2784056	0.055073303	todoslosdías	;
159	947.0847338	0.08501575	todoslosdías	;
16	955.0818367	0.012994529	todoslosdías	;
160	946.7745071	0.096533289	todoslosdías	;
161	946.9170876	0.063941792	todoslosdías	;
162	946.518642	0.028645834	todoslosdías	;
163	944.6677183	0.063704171	todoslosdías	;
164	956.6130671	0.003649048	todoslosdías	;
165	956.4544075	0.02643916	todoslosdías	;
166	949.2452991	0.084821449	todoslosdías	;
167	952.4556954	0.051006303	todoslosdías	;
168	955.2793026	0.022199717	todoslosdías	;
169	950.02	0.086978363	todoslosdías	;
17	948.169218	0.022907022	todoslosdías	;
170	949.3836912	0.074517357	todoslosdías	;
171	949.7299191	0.01483732	todoslosdías	;
172	949.9159182	0	todoslosdías	;
173	951.2922801	0.019386574	todoslosdías	;
174	950.017	0.04763053	todoslosdías	;
175	948.7633362	0.042707165	todoslosdías	;
176	949.9047622	0.031619727	todoslosdías	;
177	949.2407684	0.026443544	todoslosdías	;
178	944.9081636	0.117782278	todoslosdías	;
179	951.3330761	0.03348444	todoslosdías	;
18	947.1509392	0	todoslosdías	;
180	950.02	0.008673249	todoslosdías	;
181	949.3516454	0	todoslosdías	;
182	948.1883684	0	todoslosdías	;
183	949.0666904	0.010033787	todoslosdías	;
184	947.1515711	0.042127973	todoslosdías	;
185	946.9614129	0.051343879	todoslosdías	;
186	950.017	0.023137919	todoslosdías	;
187	951.7558174	0.020185946	todoslosdías	;
188	950.02	0	todoslosdías	;
189	957.4037673	0.036683385	todoslosdías	;
19	945.028	0	todoslosdías	;
190	956.818351	0	todoslosdías	;
191	948.686763	0.023289902	todoslosdías	;
192	948.0426847	0.036809064	todoslosdías	;
193	949.0346419	0.013985339	todoslosdías	;
194	956.6406794	0.053234896	todoslosdías	;
195	949.3483231	0.008337133	todoslosdías	;
196	949.2761337	0.034518605	todoslosdías	;
197	949.9511367	0.014885546	todoslosdías	;
198	950.017	0.0117509	todoslosdías	;
199	950.017	0.011625514	todoslosdías	;
2	949.8222741	0.015087215	todoslosdías	;
20	954.1711763	0.068978266	todoslosdías	;
200	948.6433867	0	todoslosdías	;
201	949.5150229	0.011059671	todoslosdías	;
202	949.4703202	0.00151106	todoslosdías	;
203	967.47	0.002732767	todoslosdías	;
204	952.2242546	0.030317644	todoslosdías	;
205	951.74872	0.027983831	todoslosdías	;
206	951.5977565	0.031892127	todoslosdías	;
207	947.8279962	0.032641227	todoslosdías	;
208	947.8242878	0.007090582	todoslosdías	;
209	947.7570166	0.015110597	todoslosdías	;
21	946.0030912	0.012040252	todoslosdías	;
210	948.0731468	0.031195929	todoslosdías	;
211	947.7464999	0.031491127	todoslosdías	;
212	948.08471	0	todoslosdías	;
213	947.5858952	0	todoslosdías	;
214	947.5940182	0	todoslosdías	;
215	947.5125335	0.005529835	todoslosdías	;
216	947.2596692	0	todoslosdías	;
217	947.662962	0	todoslosdías	;
218	949.1048901	0.058127571	todoslosdías	;
219	948.0421165	0.050650312	todoslosdías	;
22	952.9843615	0.010030864	todoslosdías	;
220	949.3562398	0.081907033	todoslosdías	;
221	954.849169	0.034593426	todoslosdías	;
222	956.7811725	0.041249445	todoslosdías	;
223	950.02	0.030623071	todoslosdías	;
224	957.6876335	0	todoslosdías	;
225	949.5802176	0	todoslosdías	;
226	954.48477	0.092059485	todoslosdías	;
227	951.3780349	0	todoslosdías	;
228	950.017	0.012586805	todoslosdías	;
229	950.02	0.020785108	todoslosdías	;
23	955.287766	0.007008745	todoslosdías	;
230	950.3073316	0.001012731	todoslosdías	;
231	950.4831181	0.017312886	todoslosdías	;
232	951.1002096	0.005047582	todoslosdías	;
233	950.9171593	0	todoslosdías	;
234	952.7796605	0.005240483	todoslosdías	;
235	951.4386064	0.130829026	todoslosdías	;
236	952.3809888	0.022434998	todoslosdías	;
237	950.9822585	0.024321631	todoslosdías	;
238	951.8924424	0.034995498	todoslosdías	;
239	952.155187	0.012040252	todoslosdías	;
24	951.585872	0.008728781	todoslosdías	;
240	975.5952232	0	todoslosdías	;
241	949.8642878	0.022585519	todoslosdías	;
242	956.1590484	0.016756687	todoslosdías	;
243	945.028	0.007394547	todoslosdías	;
244	960.5750041	0.142650659	todoslosdías	;
245	951.1142545	0	todoslosdías	;
246	952.456214	0	todoslosdías	;
247	945.028	0	todoslosdías	;
248	945.028	0	todoslosdías	;
249	947.0792905	0	todoslosdías	;
25	952.5969816	0.005405619	todoslosdías	;
250	945.8600668	0	todoslosdías	;
251	945.5881537	0.071597047	todoslosdías	;
252	952.41352	0	todoslosdías	;
253	943.0706907	0	todoslosdías	;
254	950.8813831	0.104777519	todoslosdías	;
255	950.745707	0	todoslosdías	;
256	950.02	0.010320216	todoslosdías	;
257	954.2287021	0.089403876	todoslosdías	;
258	951.483863	0.069243819	todoslosdías	;
259	968.7901508	0.044871603	todoslosdías	;
26	955.0072312	0	todoslosdías	;
260	948.4068567	0.020672583	todoslosdías	;
261	949.104074	0.012056326	todoslosdías	;
262	950.02	0.016126251	todoslosdías	;
263	956.3564011	0.015689301	todoslosdías	;
264	956.1347068	0.001286008	todoslosdías	;
265	950.02	0	todoslosdías	;
266	950.02	0.02677966	todoslosdías	;
267	955.3416885	0.048977331	todoslosdías	;
268	959.6861542	0.081655676	todoslosdías	;
269	950.02	0.08531057	todoslosdías	;
27	951.1667053	0	todoslosdías	;
270	959.0965252	0.010464892	todoslosdías	;
271	953.1439806	0.032429329	todoslosdías	;
272	949.1233092	0.064863041	todoslosdías	;
273	952.3081509	0	todoslosdías	;
274	951.2601663	0.062692902	todoslosdías	;
275	955.011	0.013856738	todoslosdías	;
276	954.7191472	0	todoslosdías	;
277	951.547352	0.008427738	todoslosdías	;
278	952.99816	0.035075875	todoslosdías	;
279	956.2955759	0.051063294	todoslosdías	;
28	952.1798391	0	todoslosdías	;
280	950.0419937	0.006215706	todoslosdías	;
281	957.1082833	0.032038556	todoslosdías	;
282	955.174	0	todoslosdías	;
283	955.174	0	todoslosdías	;
284	961.2603679	0.027150849	todoslosdías	;
285	954.4048026	0.023919754	todoslosdías	;
286	952.9716848	0.018132716	todoslosdías	;
287	953.9718443	0.044769161	todoslosdías	;
288	951.159924	0.006954089	todoslosdías	;
289	955.011	0.035243932	todoslosdías	;
29	950.8953516	0.110926979	todoslosdías	;
290	952.6494572	0	todoslosdías	;
291	955.174	0.030735597	todoslosdías	;
292	960.2739284	0.0078125	todoslosdías	;
293	954.9101383	0.035162095	todoslosdías	;
294	948.6840452	0.01335841	todoslosdías	;
295	960.035	0.07505027	todoslosdías	;
296	948.8359179	0.012281378	todoslosdías	;
297	948.1513367	0.005287247	todoslosdías	;
298	947.0453092	0.003761574	todoslosdías	;
299	957.6694089	0.046504543	todoslosdías	;
3	952.5277782	0.034153749	todoslosdías	;
30	950.02	0.024670168	todoslosdías	;
300	946.159487	0.065701868	todoslosdías	;
301	950.02	0	todoslosdías	;
302	949.0608535	0.052548052	todoslosdías	;
303	948.5244969	0.035654579	todoslosdías	;
304	947.2635873	0.023083848	todoslosdías	;
305	949.8347676	0.007780349	todoslosdías	;
306	949.0067314	0.00226659	todoslosdías	;
307	949.5059718	0.005240484	todoslosdías	;
308	949.3612642	0.027745627	todoslosdías	;
31	951.1350296	0.023861298	todoslosdías	;
310	951.3620526	0.012024177	todoslosdías	;
311	952.0776333	0	todoslosdías	;
312	950.017	0.02186214	todoslosdías	;
313	947.9963412	0.010701634	todoslosdías	;
314	948.4367482	0	todoslosdías	;
315	949.0478753	0.035172325	todoslosdías	;
316	949.1361059	0.022907021	todoslosdías	;
317	949.3718616	0.084106398	todoslosdías	;
318	950.017	0.023777999	todoslosdías	;
319	952.8543417	0.003825874	todoslosdías	;
32	948.9468287	0.021210367	todoslosdías	;
320	957.7220132	0.020399306	todoslosdías	;
321	949.4742647	0	todoslosdías	;
322	961.2555655	0.038983586	todoslosdías	;
323	953.4287699	0.015877525	todoslosdías	;
324	954.7210536	0.02087352	todoslosdías	;
325	952.3940477	0.011667602	todoslosdías	;
326	950.7816699	0	todoslosdías	;
327	951.9073687	0	todoslosdías	;
328	950.8823474	0.038021418	todoslosdías	;
329	952.3947439	0.007249871	todoslosdías	;
33	949.3807234	0.036297581	todoslosdías	;
330	954.686567	0.010720632	todoslosdías	;
34	948.3113484	0.019011488	todoslosdías	;
35	948.2998163	0.013567387	todoslosdías	;
36	948.7022728	0.07674254	todoslosdías	;
37	967.475797	0.01507114	todoslosdías	;
38	948.3273012	0.096976713	todoslosdías	;
39	949.0851599	0.013615612	todoslosdías	;
4	955.2437314	0.009706147	todoslosdías	;
40	949.3057558	0.015438153	todoslosdías	;
41	946.6969231	0.04744932	todoslosdías	;
42	947.5066279	0	todoslosdías	;
43	952.5871739	0.022537295	todoslosdías	;
44	952.1670604	0.288404153	todoslosdías	;
45	954.8841517	0.223958628	todoslosdías	;
46	954.7607865	0.056664738	todoslosdías	;
47	959.0110508	0.03482598	todoslosdías	;
48	953.9798112	0.046505274	todoslosdías	;
49	950.7580847	0.039120954	todoslosdías	;
5	951.1154871	0.109752327	todoslosdías	;
50	950.7642119	0.047090114	todoslosdías	;
51	951.3791005	0.075241712	todoslosdías	;
52	951.9356069	0.104960191	todoslosdías	;
53	955.462976	0.04942948	todoslosdías	;
54	956.1955391	0.016894933	todoslosdías	;
55	954.858609	0.098609064	todoslosdías	;
56	954.4404316	0.060205644	todoslosdías	;
57	956.21376	0.095076927	todoslosdías	;
58	951.7064485	0.137939832	todoslosdías	;
59	950.1762984	0	todoslosdías	;
6	950.8750965	0.006510417	todoslosdías	;
60	954.5097685	0.173188776	todoslosdías	;
61	954.2576322	0.053015689	todoslosdías	;
62	954.7281822	0.035148942	todoslosdías	;
63	957.3324974	0.0130129	todoslosdías	;
64	956.1781167	0.040538485	todoslosdías	;
65	950.5505501	0.05050505	todoslosdías	;
66	957.5699555	0.091752303	todoslosdías	;
67	948.4139296	0.067841318	todoslosdías	;
68	956.5295556	0	todoslosdías	;
69	956.5802781	0.035167941	todoslosdías	;
7	949.6183302	0.036554783	todoslosdías	;
70	955.174	0	todoslosdías	;
71	955.174	0.012987222	todoslosdías	;
72	954.1367364	0.036860211	todoslosdías	;
73	952.9393139	0.00853588	todoslosdías	;
74	949.0543579	0.086418293	todoslosdías	;
75	948.5048185	0.068551546	todoslosdías	;
76	948.0091597	0.051352647	todoslosdías	;
77	952.3543147	0.142663615	todoslosdías	;
78	954.3244629	0.037310313	todoslosdías	;
79	950.8114375	0.068035975	todoslosdías	;
8	955.4503804	0.02654321	todoslosdías	;
80	946.5184038	0.091408881	todoslosdías	;
81	952.4679054	0.057459724	todoslosdías	;
82	948.0299667	0.108042228	todoslosdías	;
83	949.546382	0.013817282	todoslosdías	;
84	951.9329353	0.043233259	todoslosdías	;
85	950.017	0.017288043	todoslosdías	;
86	950.017	0.060281637	todoslosdías	;
87	950.2641704	0.012602881	todoslosdías	;
88	950.02	0.046746398	todoslosdías	;
89	950.8227505	0.015078447	todoslosdías	;
9	952.2565388	0	todoslosdías	;
90	950.3121993	0.002523791	todoslosdías	;
91	956.7903467	0.070135672	todoslosdías	;
92	955.011	0.068478476	todoslosdías	;
93	953.4825812	0.059653246	todoslosdías	;
94	953.6771137	0.085716832	todoslosdías	;
95	954.9136081	0	todoslosdías	;
96	954.4898653	0	todoslosdías	;
97	953.3225723	0.064183501	todoslosdías	;
98	956.8384334	0	todoslosdías	;
99	952.0194404	0.136012908	todoslosdías	;

[RESERVOIRS]
;ID	Head	Pattern
331	987.5	 	;

[TANKS]
;ID	Elevation	InitLevel	MinLevel	MaxLevel	Diameter	MinVol	VolCurve

[PIPES]
;ID	Node1	Node2	Length	Diameter	Roughness	MinorLoss	Status
1	1	170	2	76.2	0.0015	0	Open	;
10	11	245	300	76.2	0.0015	0	Open	;
100	89	59	31.69	76.2	0.0015	0	Open	;
1001	10	245	100	76.2	0.0015	0	Open	;
1002	10	27	75.58	76.2	0.0015	0	Open	;
1003	20	15	1500	76.2	0.0015	0	Open	;
1004	8	22	2	152.4	0.0015	0	Open	;
1005	50	49	23.68	76.2	0.0015	0	Open	;
1006	50	51	142	152.4	0.0015	0	Open	;
1007	56	94	120	76.2	0.0015	0	Open	;
1008	94	93	120	76.2	0.0015	0	Open	;
1009	92	275	11.42	76.2	0.0015	0	Open	;
101	90	59	5	76.2	0.0015	0	Open	;
1010	91	275	82	76.2	0.0015	0	Open	;
1011	57	267	70	76.2	0.0015	0	Open	;
1012	121	122	25	76.2	0.0015	0	Open	;
1014	198	230	50	152.4	0.0015	0	Open	;
1015	230	310	2	76.2	0.0015	0	Open	;
1016	204	310	47	152.4	0.0015	0	Open	;
1017	206	310	54	76.2	0.0015	0	Open	;
1018	55	299	90	76.2	0.0015	0	Open	;
1019	125	45	2	76.2	0.0015	0	Open	;
102	65	90	1	76.2	0.0015	0	Open	;
1020	240	331	1	76.2	0.0015	0	Open	;
1022	146	294	1	76.2	0.0015	0	Open	;
103	93	92	72	152.4	0.0015	0	Open	;
104	92	64	75	76.2	0.0015	0	Open	;
105	58	56	75	76.2	0.0015	0	Open	;
106	95	276	5.05	152.4	0.0015	0	Open	;
107	96	56	1.03	76.2	0.0015	0	Open	;
108	96	276	6.02	152.4	0.0015	0	Open	;
109	97	62	94	76.2	0.0015	0	Open	;
11	11	246	200	76.2	0.0015	0	Open	;
110	98	222	97	76.2	0.0015	0	Open	;
111	99	277	13.98	152.4	0.0015	0	Open	;
112	99	278	79	76.2	0.0015	0	Open	;
113	61	100	2	76.2	0.0015	0	Open	;
114	100	279	78	76.2	0.0015	0	Open	;
115	97	101	97	76.2	0.0015	0	Open	;
116	101	279	10	76.2	0.0015	0	Open	;
117	102	95	9.56	76.2	0.0015	0	Open	;
118	64	57	37	76.2	0.0015	0	Open	;
119	99	103	80	76.2	0.0015	0	Open	;
12	12	16	80	76.2	0.0015	0	Open	;
120	103	104	91.5	76.2	0.0015	0	Open	;
121	104	48	12.14	152.4	0.0015	0	Open	;
122	105	48	95	76.2	0.0015	0	Open	;
123	106	105	1	152.4	0.0015	0	Open	;
124	103	107	94	76.2	0.0015	0	Open	;
125	107	280	14	152.4	0.0015	0	Open	;
126	107	106	90	76.2	0.0015	0	Open	;
127	35	67	90	76.2	0.0015	0	Open	;
128	108	67	85	152.4	0.0015	0	Open	;
129	60	108	90	76.2	0.0015	0	Open	;
13	13	25	49	76.2	0.0015	0	Open	;
130	97	167	28	152.4	0.0015	0	Open	;
131	109	100	60	76.2	0.0015	0	Open	;
132	110	109	1	101.6	0.0015	0	Open	;
133	110	111	90	76.2	0.0015	0	Open	;
134	111	281	80	76.2	0.0015	0	Open	;
135	66	111	42	76.2	0.0015	0	Open	;
136	112	60	90	152.4	0.0015	0	Open	;
137	113	108	90	76.2	0.0015	0	Open	;
138	114	115	87.5	76.2	0.0015	0	Open	;
139	114	60	95	152.4	0.0015	0	Open	;
14	14	13	15.36	76.2	0.0015	0	Open	;
140	47	119	14.32	152.4	0.0015	0	Open	;
141	115	119	15.84	76.2	0.0015	0	Open	;
142	70	282	7	152.4	0.0015	0	Open	;
143	70	283	6	76.2	0.0015	0	Open	;
144	116	271	90	152.4	0.0015	0	Open	;
145	117	283	12.57	152.4	0.0015	0	Open	;
146	117	124	5	76.2	0.0015	0	Open	;
147	117	264	5	152.4	0.0015	0	Open	;
148	118	117	90	76.2	0.0015	0	Open	;
149	119	120	90	76.2	0.0015	0	Open	;
15	15	14	16.57	152.4	0.0015	0	Open	;
150	120	121	90	101.6	0.0015	0	Open	;
151	122	118	2.61	76.2	0.0015	0	Open	;
152	118	284	2.61	76.2	0.0015	0	Open	;
153	37	118	222	101.6	0.0015	0	Open	;
154	123	284	180	76.2	0.0015	0	Open	;
155	124	55	85	76.2	0.0015	0	Open	;
156	55	285	5	152.4	0.0015	0	Open	;
157	116	126	85	76.2	0.0015	0	Open	;
158	123	44	90	76.2	0.0015	0	Open	;
159	125	286	70	76.2	0.0015	0	Open	;
16	16	26	1	76.2	0.0015	0	Open	;
160	126	29	104	101.6	0.0015	0	Open	;
161	79	29	160	152.4	0.0015	0	Open	;
162	127	79	5	76.2	0.0015	0	Open	;
163	128	127	84	76.2	0.0015	0	Open	;
164	129	128	94	152.4	0.0015	0	Open	;
165	128	80	80	76.2	0.0015	0	Open	;
166	130	73	1	76.2	0.0015	0	Open	;
167	74	129	90	76.2	0.0015	0	Open	;
168	131	74	4	76.2	0.0015	0	Open	;
169	132	41	5	152.4	0.0015	0	Open	;
17	17	19	110	76.2	0.0015	0	Open	;
170	133	184	100	152.4	0.0015	0	Open	;
171	134	75	1	152.4	0.0015	0	Open	;
172	134	133	12	76.2	0.0015	0	Open	;
173	45	136	130	101.6	0.0015	0	Open	;
174	135	78	4.53	76.2	0.0015	0	Open	;
175	136	135	40	76.2	0.0015	0	Open	;
176	137	135	14	76.2	0.0015	0	Open	;
177	137	130	55	152.4	0.0015	0	Open	;
178	81	138	14	76.2	0.0015	0	Open	;
179	138	77	61	76.2	0.0015	0	Open	;
18	17	18	50.48	76.2	0.0015	0	Open	;
180	77	287	103	76.2	0.0015	0	Open	;
181	139	287	12	76.2	0.0015	0	Open	;
182	134	139	113	76.2	0.0015	0	Open	;
183	140	287	4	76.2	0.0015	0	Open	;
184	82	76	3	152.4	0.0015	0	Open	;
185	141	132	92	76.2	0.0015	0	Open	;
186	142	141	140	76.2	0.0015	0	Open	;
187	143	142	4	152.4	0.0015	0	Open	;
188	143	42	7.6	76.2	0.0015	0	Open	;
189	144	224	24	76.2	0.0015	0	Open	;
19	18	21	64.37	76.2	0.0015	0	Open	;
190	145	68	11.02	76.2	0.0015	0	Open	;
191	146	147	8.45	76.2	0.0015	0	Open	;
192	38	146	57	76.2	0.0015	0	Open	;
193	147	148	9	152.4	0.0015	0	Open	;
194	148	149	31.7	152.4	0.0015	0	Open	;
195	149	143	100	76.2	0.0015	0	Open	;
196	39	149	24	76.2	0.0015	0	Open	;
197	150	151	8.5	152.4	0.0015	0	Open	;
198	151	152	1	152.4	0.0015	0	Open	;
199	86	84	74	152.4	0.0015	0	Open	;
2	2	241	1	76.2	0.0015	0	Open	;
20	19	247	28.71	76.2	0.0015	0	Open	;
200	84	173	203	76.2	0.0015	0	Open	;
201	152	153	144	76.2	0.0015	0	Open	;
202	153	233	7	76.2	0.0015	0	Open	;
203	154	28	29	152.4	0.0015	0	Open	;
204	154	288	186	76.2	0.0015	0	Open	;
205	155	228	38	76.2	0.0015	0	Open	;
206	40	1	2	152.4	0.0015	0	Open	;
207	156	220	80	152.4	0.0015	0	Open	;
208	157	156	302	76.2	0.0015	0	Open	;
209	158	220	4	76.2	0.0015	0	Open	;
21	19	248	16.12	152.4	0.0015	0	Open	;
210	159	219	160	76.2	0.0015	0	Open	;
211	160	159	98	76.2	0.0015	0	Open	;
212	161	160	183	76.2	0.0015	0	Open	;
213	162	161	180	152.4	0.0015	0	Open	;
214	163	178	78	152.4	0.0015	0	Open	;
215	164	165	3.54	76.2	0.0015	0	Open	;
216	164	69	3.54	152.4	0.0015	0	Open	;
217	69	165	3.54	152.4	0.0015	0	Open	;
218	165	105	84	152.4	0.0015	0	Open	;
219	166	143	475	76.2	0.0015	0	Open	;
22	18	249	5.86	76.2	0.0015	0	Open	;
220	102	289	11	76.2	0.0015	0	Open	;
221	167	290	1	101.6	0.0015	0	Open	;
222	168	291	84	76.2	0.0015	0	Open	;
223	121	292	11.59	152.4	0.0015	0	Open	;
224	46	293	5.53	76.2	0.0015	0	Open	;
225	221	330	60	76.2	0.0015	0	Open	;
226	2	30	119	152.4	0.0015	0	Open	;
227	52	58	118	76.2	0.0015	0	Open	;
228	91	53	62	76.2	0.0015	0	Open	;
229	169	31	202	76.2	0.0015	0	Open	;
23	16	22	2	152.4	0.0015	0	Open	;
230	31	90	40	101.6	0.0015	0	Open	;
231	90	32	88	76.2	0.0015	0	Open	;
232	68	164	3.57	76.2	0.0015	0	Open	;
233	168	114	4	76.2	0.0015	0	Open	;
234	66	295	270	76.2	0.0015	0	Open	;
235	130	44	270	76.2	0.0015	0	Open	;
236	170	155	250	76.2	0.0015	0	Open	;
237	171	40	134	76.2	0.0015	0	Open	;
238	172	171	150	76.2	0.0015	0	Open	;
239	173	153	7	76.2	0.0015	0	Open	;
24	21	250	16.12	76.2	0.0015	0	Open	;
240	39	174	130	76.2	0.0015	0	Open	;
241	174	150	18	76.2	0.0015	0	Open	;
242	175	134	1	76.2	0.0015	0	Open	;
243	176	177	62.22	76.2	0.0015	0	Open	;
244	177	225	58	76.2	0.0015	0	Open	;
245	178	160	356	76.2	0.0015	0	Open	;
246	179	89	129	76.2	0.0015	0	Open	;
247	203	240	40	76.2	0.0015	0	Open	;
248	180	181	81.04	76.2	0.0015	0	Open	;
249	181	183	1	76.2	0.0015	0	Open	;
25	21	251	37.67	76.2	0.0015	0	Open	;
250	182	296	158.74	76.2	0.0015	0	Open	;
251	182	297	11.89	76.2	0.0015	0	Open	;
252	181	297	48.1	76.2	0.0015	0	Open	;
253	183	298	124.75	76.2	0.0015	0	Open	;
254	180	30	4	76.2	0.0015	0	Open	;
255	203	37	10	76.2	0.0015	0	Open	;
256	159	185	5	152.4	0.0015	0	Open	;
257	184	41	14.85	152.4	0.0015	0	Open	;
258	185	300	115	76.2	0.0015	0	Open	;
259	186	85	15.21	152.4	0.0015	0	Open	;
26	15	23	6	76.2	0.0015	0	Open	;
260	187	168	84	76.2	0.0015	0	Open	;
261	188	88	29	152.4	0.0015	0	Open	;
262	189	194	120	76.2	0.0015	0	Open	;
263	188	301	6	76.2	0.0015	0	Open	;
264	140	204	23	76.2	0.0015	0	Open	;
265	190	189	15	152.4	0.0015	0	Open	;
266	191	302	61	101.6	0.0015	0	Open	;
267	192	303	60	76.2	0.0015	0	Open	;
268	193	200	38.5	76.2	0.0015	0	Open	;
269	59	229	8.74	76.2	0.0015	0	Open	;
27	22	9	48	76.2	0.0015	0	Open	;
270	194	279	10	76.2	0.0015	0	Open	;
271	184	304	1	152.4	0.0015	0	Open	;
272	192	191	38.5	152.4	0.0015	0	Open	;
273	195	193	53	76.2	0.0015	0	Open	;
274	191	196	38	76.2	0.0015	0	Open	;
275	196	202	10	76.2	0.0015	0	Open	;
276	197	231	62	152.4	0.0015	0	Open	;
277	199	227	26	76.2	0.0015	0	Open	;
278	198	199	39	152.4	0.0015	0	Open	;
279	191	200	75.5	76.2	0.0015	0	Open	;
28	23	17	345	76.2	0.0015	0	Open	;
280	196	305	70	76.2	0.0015	0	Open	;
281	197	198	44.5	76.2	0.0015	0	Open	;
282	200	306	73	76.2	0.0015	0	Open	;
283	193	196	75.5	76.2	0.0015	0	Open	;
284	201	197	42	76.2	0.0015	0	Open	;
285	201	232	65	152.4	0.0015	0	Open	;
286	201	307	36.5	76.2	0.0015	0	Open	;
287	202	308	1	152.4	0.0015	0	Open	;
288	205	311	10	152.4	0.0015	0	Open	;
289	206	205	42	76.2	0.0015	0	Open	;
29	24	6	52	76.2	0.0015	0	Open	;
290	186	312	1	76.2	0.0015	0	Open	;
291	207	215	40	76.2	0.0015	0	Open	;
292	208	207	3.33	76.2	0.0015	0	Open	;
293	209	208	37.04	152.4	0.0015	0	Open	;
294	210	218	134	76.2	0.0015	0	Open	;
295	210	212	14.21	76.2	0.0015	0	Open	;
296	211	210	45.78	152.4	0.0015	0	Open	;
297	212	313	1	76.2	0.0015	0	Open	;
298	213	209	30	76.2	0.0015	0	Open	;
299	214	208	38	152.4	0.0015	0	Open	;
3	3	5	320	152.4	0.0015	0	Open	;
30	25	24	51	152.4	0.0015	0	Open	;
300	215	314	115	76.2	0.0015	0	Open	;
301	211	209	4.63	152.4	0.0015	0	Open	;
302	216	215	43	76.2	0.0015	0	Open	;
303	207	315	186	76.2	0.0015	0	Open	;
304	217	211	6.22	152.4	0.0015	0	Open	;
305	218	315	45	76.2	0.0015	0	Open	;
306	219	210	45	152.4	0.0015	0	Open	;
307	156	316	1	76.2	0.0015	0	Open	;
308	220	317	400	76.2	0.0015	0	Open	;
309	172	318	150	76.2	0.0015	0	Open	;
31	26	13	1	76.2	0.0015	0	Open	;
310	28	3	10	76.2	0.0015	0	Open	;
311	3	319	1	76.2	0.0015	0	Open	;
312	221	62	6	76.2	0.0015	0	Open	;
313	202	197	28	76.2	0.0015	0	Open	;
314	219	158	160	76.2	0.0015	0	Open	;
315	222	221	97	76.2	0.0015	0	Open	;
316	223	176	20	76.2	0.0015	0	Open	;
317	88	176	6	76.2	0.0015	0	Open	;
318	224	320	1	152.4	0.0015	0	Open	;
319	225	7	1.5	76.2	0.0015	0	Open	;
32	9	252	1	76.2	0.0015	0	Open	;
320	226	96	7.36	152.4	0.0015	0	Open	;
321	227	204	3	76.2	0.0015	0	Open	;
322	76	192	2	152.4	0.0015	0	Open	;
323	228	154	100	152.4	0.0015	0	Open	;
324	229	321	54.26	76.2	0.0015	0	Open	;
325	231	206	2	152.4	0.0015	0	Open	;
326	232	205	2	76.2	0.0015	0	Open	;
327	49	322	387	76.2	0.0015	0	Open	;
328	233	288	7	76.2	0.0015	0	Open	;
329	234	323	35	76.2	0.0015	0	Open	;
33	20	27	1500	76.2	0.0015	0	Open	;
330	235	324	179	76.2	0.0015	0	Open	;
331	236	325	50	152.4	0.0015	0	Open	;
332	237	326	20	76.2	0.0015	0	Open	;
333	237	238	100	152.4	0.0015	0	Open	;
334	238	234	23	76.2	0.0015	0	Open	;
335	234	327	60	76.2	0.0015	0	Open	;
336	236	235	33	76.2	0.0015	0	Open	;
337	235	328	40	76.2	0.0015	0	Open	;
338	238	239	12	76.2	0.0015	0	Open	;
339	239	236	52	76.2	0.0015	0	Open	;
34	27	253	100	76.2	0.0015	0	Open	;
340	239	329	1	76.2	0.0015	0	Open	;
35	28	4	100	76.2	0.0015	0	Open	;
36	5	254	146	76.2	0.0015	0	Open	;
37	29	255	5.2	152.4	0.0015	0	Open	;
38	30	256	11.19	76.2	0.0015	0	Open	;
39	31	257	94	76.2	0.0015	0	Open	;
4	4	242	218	76.2	0.0015	0	Open	;
40	32	33	4	152.4	0.0015	0	Open	;
41	33	258	100	76.2	0.0015	0	Open	;
42	32	34	84	76.2	0.0015	0	Open	;
43	34	35	1	152.4	0.0015	0	Open	;
44	35	36	4	152.4	0.0015	0	Open	;
45	36	103	96	152.4	0.0015	0	Open	;
46	37	259	35	152.4	0.0015	0	Open	;
47	38	260	1	76.2	0.0015	0	Open	;
48	39	261	40	152.4	0.0015	0	Open	;
49	40	166	2	152.4	0.0015	0	Open	;
5	5	237	100	152.4	0.0015	0	Open	;
50	41	80	92	76.2	0.0015	0	Open	;
51	42	157	5	101.6	0.0015	0	Open	;
52	43	29	60	101.6	0.0015	0	Open	;
53	44	126	70	76.2	0.0015	0	Open	;
54	45	46	22.3	76.2	0.0015	0	Open	;
55	46	123	101.5	76.2	0.0015	0	Open	;
56	47	145	78.59	76.2	0.0015	0	Open	;
57	48	109	15.8	76.2	0.0015	0	Open	;
58	49	262	70	76.2	0.0015	0	Open	;
59	51	52	68	76.2	0.0015	0	Open	;
6	6	223	80	76.2	0.0015	0	Open	;
60	52	93	44	152.4	0.0015	0	Open	;
61	53	263	40	76.2	0.0015	0	Open	;
62	54	264	90	152.4	0.0015	0	Open	;
63	55	44	51	76.2	0.0015	0	Open	;
64	57	102	65	76.2	0.0015	0	Open	;
65	58	87	46	76.2	0.0015	0	Open	;
66	59	265	14	76.2	0.0015	0	Open	;
67	51	266	68	76.2	0.0015	0	Open	;
68	60	107	84	152.4	0.0015	0	Open	;
69	61	99	88	76.2	0.0015	0	Open	;
7	7	243	200	76.2	0.0015	0	Open	;
70	62	226	140	76.2	0.0015	0	Open	;
71	63	144	2	76.2	0.0015	0	Open	;
72	64	144	55	76.2	0.0015	0	Open	;
73	65	167	72	76.2	0.0015	0	Open	;
74	66	268	42	152.4	0.0015	0	Open	;
75	67	269	92	76.2	0.0015	0	Open	;
76	68	112	10.2	76.2	0.0015	0	Open	;
77	69	270	90	152.4	0.0015	0	Open	;
78	70	71	5	152.4	0.0015	0	Open	;
79	71	271	60	152.4	0.0015	0	Open	;
8	8	244	398	76.2	0.0015	0	Open	;
80	72	116	68	76.2	0.0015	0	Open	;
81	73	129	90	76.2	0.0015	0	Open	;
82	74	175	85	152.4	0.0015	0	Open	;
83	75	82	111	76.2	0.0015	0	Open	;
84	76	38	100	76.2	0.0015	0	Open	;
85	77	272	84	76.2	0.0015	0	Open	;
86	78	138	95	76.2	0.0015	0	Open	;
87	79	130	84	76.2	0.0015	0	Open	;
88	80	131	90	76.2	0.0015	0	Open	;
89	81	129	77	76.2	0.0015	0	Open	;
9	9	188	199	76.2	0.0015	0	Open	;
90	82	141	105	76.2	0.0015	0	Open	;
91	83	86	82	76.2	0.0015	0	Open	;
92	84	273	87	76.2	0.0015	0	Open	;
93	85	151	1	152.4	0.0015	0	Open	;
94	86	186	81	76.2	0.0015	0	Open	;
95	85	274	54	76.2	0.0015	0	Open	;
96	87	169	9.98	76.2	0.0015	0	Open	;
97	88	241	205	76.2	0.0015	0	Open	;
98	30	169	11.19	152.4	0.0015	0	Open	;
99	7	179	396	76.2	0.0015	0	Open	;

[PUMPS]
;ID	Node1	Node2	Parameters

[VALVES]
;ID	Node1	Node2	Diameter	Type	Setting	MinorLoss

[TAGS]

[DEMANDS]
;Junction	Demand	Pattern	Category

[STATUS]
;ID	Status/Setting

[PATTERNS]
;ID	M1	M2	M3	M4	M5	M6
findesemana	0.49351304769516
findesemana	0.477286219596863
findesemana	0.467885255813599
findesemana	0.457152515649796
findesemana	0.445346832275391
findesemana	0.437017261981964
findesemana	0.434098690748215
findesemana	0.4307941198349
findesemana	0.428733259439468
findesemana	0.427059173583984
findesemana	0.428604602813721
findesemana	0.428776532411575
findesemana	0.428647488355637
findesemana	0.429978132247925
findesemana	0.426651358604431
findesemana	0.43937948346138
findesemana	0.452301353216171
findesemana	0.476083874702454
findesemana	0.508529722690582
findesemana	0.532885193824768
findesemana	0.546199679374695
findesemana	0.579046726226807
findesemana	0.592799305915833
findesemana	0.648486733436584
findesemana	0.741566121578217
findesemana	0.886348187923431
findesemana	0.992662370204926
findesemana	1.08063971996307
findesemana	1.16861605644226
findesemana	1.23793768882751
findesemana	1.2930281162262
findesemana	1.38811326026916
findesemana	1.42039608955383
findesemana	1.47650480270386
findesemana	1.53402900695801
findesemana	1.58120894432068
findesemana	1.64937937259674
findesemana	1.69110691547394
findesemana	1.70102322101593
findesemana	1.73631167411804
findesemana	1.75025451183319
findesemana	1.73566675186157
findesemana	1.76145553588867
findesemana	1.74248123168945
findesemana	1.72123336791992
findesemana	1.69289231300354
findesemana	1.68269264698029
findesemana	1.61392319202423
findesemana	1.6026816368103
findesemana	1.52836227416992
findesemana	1.48349285125732
findesemana	1.45016717910767
findesemana	1.40388643741608
findesemana	1.37841415405273
findesemana	1.36147224903107
findesemana	1.36982595920563
findesemana	1.32902479171753
findesemana	1.34269404411316
findesemana	1.30438840389252
findesemana	1.30797648429871
findesemana	1.25696456432343
findesemana	1.24232566356659
findesemana	1.21184635162354
findesemana	1.2041187286377
findesemana	1.19415950775146
findesemana	1.13139688968658
findesemana	1.12972235679626
findesemana	1.08194291591644
findesemana	1.09134387969971
findesemana	1.09773969650269
findesemana	1.10555386543274
findesemana	1.09028625488281
findesemana	1.03639471530914
findesemana	1.02776563167572
findesemana	0.991361856460571
findesemana	0.994894623756409
findesemana	0.959337770938873
findesemana	0.95220160484314
findesemana	0.910526037216186
findesemana	0.887224972248077
findesemana	0.853342175483704
findesemana	0.814794778823853
findesemana	0.771822392940521
findesemana	0.759244799613953
findesemana	0.736743628978729
findesemana	0.737262010574341
findesemana	0.727295517921448
findesemana	0.704813897609711
findesemana	0.678902804851532
findesemana	0.660445809364319