[TITLE]

[JUNCTIONS]
;ID	Elev	Demand	Pattern
1	25	24.51	 	;
10	25	30.89	 	;
11	25	34.59	 	;
12	25	96.22	 	;
13	25	29.69	 	;
14	25	38.23	 	;
15	25	98.64	 	;
16	25	68.23	 	;
17	25	34.76	 	;
18	25	86.73	 	;
19	25	47.11	 	;
2	25	34.73	 	;
20	25	72.68	 	;
21	25	92.7	 	;
22	25	57.36	 	;
23	25	4.64	 	;
24	25	18.26	 	;
25	25	47.86	 	;
26	25	0	 	;
27	25	105.32	 	;
3	25	58.81	 	;
4	25	77.97	 	;
5	25	17.12	 	;
6	25	31.01	 	;
7	25	30.67	 	;
8	25	25.58	 	;
9	25	15.47	 	;

[RESERVOIRS]
;ID	Head	Pattern
28	50	 	;

[TANKS]
;ID	Elevation	InitLevel	MinLevel	MaxLevel	Diameter	MinVol	VolCurve

[PIPES]
;ID	Node1	Node2	Length	Diameter	Roughness	MinorLoss	Status
1	3	2	478	900	0.0015	0	Open	;
2	3	1	830	900	0.0015	0	Open	;
3	4	3	1030	900	0.0015	0	Open	;
4	25	11	679	900	0.0015	0	Open	;
5	6	17	830	900	0.0015	0	Open	;
6	26	6	508	900	0.0015	0	Open	;
7	26	4	1416	900	0.0015	0	Open	;
8	2	8	593	900	0.0015	0	Open	;
9	3	9	553	900	0.0015	0	Open	;
10	8	7	505	700	0.0015	0	Open	;
11	9	8	454	450	0.0015	0	Open	;
12	17	11	1095	600	0.0015	0	Open	;
13	9	10	392	900	0.0015	0	Open	;
14	12	10	1124	500	0.0015	0	Open	;
15	15	16	1025	750	0.0015	0	Open	;
16	12	15	1125	900	0.0015	0	Open	;
17	14	15	1003	1000	0.0015	0	Open	;
18	13	14	954	700	0.0015	0	Open	;
19	13	12	1200	800	0.0015	0	Open	;
20	26	13	435	750	0.0015	0	Open	;
21	20	19	543	450	0.0015	0	Open	;
22	27	20	740	600	0.0015	0	Open	;
23	21	20	988	600	0.0015	0	Open	;
24	15	21	1859	800	0.0015	0	Open	;
25	22	21	405	900	0.0015	0	Open	;
26	19	18	467	900	0.0015	0	Open	;
27	6	23	543	800	0.0015	0	Open	;
28	23	24	721	400	0.0015	0	Open	;
29	24	25	882	400	0.0015	0	Open	;
30	6	25	966	700	0.0015	0	Open	;
31	25	5	635	900	0.0015	0	Open	;
32	26	28	2013	1000	0.0015	0	Open	;
33	22	14	1000	700	0.0015	0	Open	;
34	27	16	1000	900	0.0015	0	Open	;


[PUMPS]
;ID	Node1	Node2	Parameters

[VALVES]
;ID	Node1	Node2	Diameter	Type	Setting	MinorLoss

[TAGS]

[DEMANDS]
;Junction	Demand	Pattern	Category

[STATUS]
;ID	Status/Setting

[PATTERNS]
;ID	M1	M2	M3	M4	M5	M6
1	0.509999990463257
1	0.52999997138977
1	0.550000011920929
1	0.600000023841858
1	0.649999976158142
1	0.699999988079071
1	0.899999976158142
1	1
1	0.699999988079071
1	0.600000023841858
1	0.649999976158142
1	0.699999988079071
1	0.75
1	0.600000023841858
1	0.649999976158142
1	0.699999988079071
1	0.800000011920929
1	1
1	1.20000004768372
1	1.10000002384186
1	1.04999995231628
1	0.899999976158142
1	0.800000011920929
1	0.600000023841858
1	0.509999990463257
1	0.52999997138977
1	0.550000011920929
1	0.600000023841858
1	0.649999976158142
1	0.699999988079071
1	0.899999976158142
1	1
1	0.699999988079071
1	0.600000023841858
1	0.649999976158142
1	0.699999988079071
1	0.75
1	0.600000023841858
1	0.649999976158142
1	0.699999988079071
1	0.800000011920929
1	1
1	1.20000004768372
1	1.10000002384186
1	1.04999995231628
1	0.899999976158142
1	0.800000011920929
1	0.600000023841858
1	0.509999990463257
1	0.52999997138977
1	0.550000011920929
1	0.600000023841858
1	0.649999976158142
1	0.699999988079071
1	0.899999976158142
1	1
1	0.699999988079071
1	0.600000023841858
1	0.649999976158142
1	0.699999988079071
1	0.75
1	0.600000023841858
1	0.649999976158142
1	0.699999988079071
1	0.800000011920929
1	1
1	1.20000004768372
1	1.10000002384186
1	1.04999995231628
1	0.899999976158142
1	0.800000011920929
1	0.600000023841858
1	0.509999990463257
1	0.52999997138977
1	0.550000011920929
1	0.600000023841858
1	0.649999976158142
1	0.699999988079071
1	0.899999976158142
1	1
1	0.699999988079071
1	0.600000023841858
1	0.649999976158142
1	0.699999988079071
1	0.75
1	0.600000023841858
1	0.649999976158142
1	0.699999988079071
1	0.800000011920929
1	1
1	1.20000004768372
1	1.10000002384186
1	1.04999995231628
1	0.899999976158142
1	0.800000011920929

[CURVES]
;ID	X-Value	Y-Value

[CONTROLS]

[RULES]

[ENERGY]
Global Efficiency	75
Global Price	0
Demand Charge	0

[EMITTERS]
;Junction	Coefficient
1	0	;
10	0	;
11	0	;
12	0	;
13	0	;
14	0	;
15	0	;
16	0	;
17	0	;
18	0	;
19	0	;
2	0	;
20	0	;
21	0	;
22	0	;
23	0	;
24	0	;
25	0	;
26	0	;
27	0	;
3	0	;
4	0	;
5	0	;
6	0	;
7	0	;
8	0	;
9	0	;

[QUALITY]
;Node	InitQual

[SOURCES]
;Node	Type	Quality	Pattern

[REACTIONS]
Order Bulk	1
Order Tank	1
Order Wall	1
Global Bulk	0
Global Wall	0
Limiting Potential	0

[REACTIONS]
;Var	Value

[MIXING]
;Tank	Model

[TIMES]
;Var	Value
Duration	00:15
Pattern Timestep	01:00
Hydraulic Timestep	01:00
Quality Timestep	0:05
Pattern Start	00:00
Report Timestep	01:00
Report Start	00:00
Start ClockTime	00:00
Statistic	None

[REPORT]
;Var	Value
Status	No
Summary	No
Page	0

[OPTIONS]
Units	LPS
HeadLoss	D-W
Specific Gravity	1
Viscosity	1
Trials	1000
Accuracy	0.001
Unbalanced	Continue 10
Pattern	1
Demand Multiplier	1
Emitter Exponent	0.5
Quality	None mg/L
Diffusivity	1
Tolerance	0.01

[COORDINATES]
;Node	X-Coord	Y-Coord
1	332.11	317.58
10	242.59	313.78
11	354.56	454.97
12	249.72	368.97
13	250.02	429.56
14	203.54	435.76
15	196.24	386.7
16	187.69	336.72
17	322.45	410.33
18	59.45	322.65
19	82.54	319.91
2	291.57	292.63
20	88.54	346.64
21	105.55	393.56
22	115.69	411.3
23	281.16	465.16
24	289.69	499.27
25	328.15	476.82
26	270.87	436.51
27	124.22	337.66
28	211.02	530.7
3	290.22	316.73
4	290.06	368.75
5	346.87	502.89
6	295.89	442.3
7	259.77	266.66
8	261.6	292.09
9	262.36	315.02

[VERTICES]
;Link	X-Coord	Y-Coord

[LABELS]
;X-Coord	Y-Coord	Label & Anchor Nodo

[BACKDROP]
;Var	Val1	Val2	Val3	Val4

[END]

