[TITLE]

[JUNCTIONS]
;ID	Elev	Demand	Pattern
1	941.2279064	0.05121929	 	;
10	940.0661007	0.047994466	 	;
11	935.7214475	0.02394978	 	;
12	939.5175985	0.086022397	 	;
13	938.9388676	0.058933264	 	;
14	937.1044048	0.044742026	 	;
15	937.940606	0.056731592	 	;
16	937.9375675	0.037018975	 	;
17	942.7943226	0.004059405	 	;
18	942.3881725	0.02650955	 	;
19	941.9875273	0.012437335	 	;
2	943.7325225	0.008282291	 	;
20	943.1912103	0.002782124	 	;
21	943.5624029	0.013679243	 	;
22	943.7149902	0.048895019	 	;
23	940.9707405	0.046974625	 	;
24	943.183	0.051101068	 	;
25	940	0.14041079	 	;
26	942.6056612	0.034614104	 	;
27	939.2351064	0.023613789	 	;
28	939.1760013	0.04711099	 	;
29	940	0.120688682	 	;
3	935.2976861	0.019980613	 	;
30	938.9986231	0.029653221	 	;
31	938.6851588	0.079799087	 	;
32	935.2533217	0.044654737	 	;
33	937.202053	0.065166293	 	;
34	938.2973877	0.051715911	 	;
35	942.0124989	0.107557538	 	;
36	939.8139205	0.067100945	 	;
37	939.4023671	0.120575204	 	;
38	939.8793803	0.018800461	 	;
39	939.86559	0.006921761	 	;
4	936.0111509	0.064470598	 	;
40	935.7647925	0.035511586	 	;
41	937.872037	0.080110237	 	;
42	940.2338312	0.053365251	 	;
43	940.0850813	0.069793628	 	;
44	939.7706777	0.045501539	 	;
45	939.7398663	0.009983972	 	;
46	939.4977087	0.12686348	 	;
47	940.9372062	0.057452999	 	;
48	938.5927237	0.03216343	 	;
49	943.4215708	0.027878505	 	;
5	937.9657037	0.014510314	 	;
50	940.1141918	0.005557694	 	;
51	940.1100321	0.00092482	 	;
52	941.9528861	0.080186245	 	;
53	940.5353986	0.076656143	 	;
54	944.055761	0.03823633	 	;
55	936.5296467	0.032332376	 	;
56	940.962634	0.033917888	 	;
57	937.9567289	0.0477223	 	;
58	936.5686687	0.025510686	 	;
6	939.2845027	0.028590715	 	;
60	940	0.16957983	 	;
61	947.1350311	0.079052858	 	;
62	962.5819108	0.088379755	 	;
63	939.8281034	0.105194182	 	;
64	939.2429733	0.040654633	 	;
65	937.0023967	0.025364224	 	;
66	940	0.03690255	 	;
67	943.2404376	0.078462636	 	;
68	945	0.114739742	 	;
7	940.6966717	0.083982468	 	;
8	940.0785336	0.071926747	 	;
9	940.1662752	0.088823061	 	;

[RESERVOIRS]
;ID	Head	Pattern
100	971.7674856	 	;

[TANKS]
;ID	Elevation	InitLevel	MinLevel	MaxLevel	Diameter	MinVol	VolCurve

[PIPES]
;ID	Node1	Node2	Length	Diameter	Roughness	MinorLoss	Status
1	48	46	115.69	508	0.0015	0	Open	;
10	43	44	119.39	355.6	0.0015	0	Open	;
11	42	43	44.74	609.6	0.0015	0	Open	;
12	41	43	137.33	355.6	0.0015	0	Open	;
13	40	44	308.06	304.8	0.0015	0	Open	;
14	39	36	33.13	254	0.0015	0	Open	;
15	38	39	9.82	508	0.0015	0	Open	;
16	37	63	159.87	203.2	0.0015	0	Open	;
17	37	62	658.34	203.2	0.0015	0	Open	;
18	36	37	259.92	406.4	0.0015	0	Open	;
19	36	61	310.65	254	0.0015	0	Open	;
2	9	68	649.69	101.6	0.0015	0	Open	;
20	35	38	261.09	609.6	0.0015	0	Open	;
21	34	30	68.09	457.2	0.0015	0	Open	;
22	33	34	106.94	152.4	0.0015	0	Open	;
23	32	33	155.83	76.2	0.0015	0	Open	;
24	31	34	120.58	457.2	0.0015	0	Open	;
25	30	28	16.43	152.4	0.0015	0	Open	;
26	29	30	369.25	254	0.0015	0	Open	;
27	28	60	90.74	406.4	0.0015	0	Open	;
28	27	28	25.37	101.6	0.0015	0	Open	;
29	26	60	291.24	203.2	0.0015	0	Open	;
3	47	67	198.82	203.2	0.0015	0	Open	;
30	25	26	93.07	762	0.0015	0	Open	;
31	24	26	69.19	355.6	0.0015	0	Open	;
32	23	24	78.65	304.8	0.0015	0	Open	;
33	22	100	213.31	152.4	0.0015	0	Open	;
34	21	22	19.46	914.4	0.0015	0	Open	;
35	20	21	8.52	609.6	0.0015	0	Open	;
36	17	20	9.11	76.2	0.0015	0	Open	;
37	19	17	22.08	76.2	0.0015	0	Open	;
38	18	19	28.47	152.4	0.0015	0	Open	;
39	17	35	330.6	457.2	0.0015	0	Open	;
4	6	66	214.05	609.6	0.0015	0	Open	;
40	16	5	2.74	406.4	0.0015	0	Open	;
41	15	5	16.16	203.2	0.0015	0	Open	;
42	14	15	168.83	609.6	0.0015	0	Open	;
43	14	58	65.79	304.8	0.0015	0	Open	;
44	13	57	214.92	101.6	0.0015	0	Open	;
45	12	7	633.28	508	0.0015	0	Open	;
46	11	14	139.76	101.6	0.0015	0	Open	;
47	1	23	15.36	152.4	0.0015	0	Open	;
48	10	1	61.74	304.8	0.0015	0	Open	;
49	9	10	18.87	914.4	0.0015	0	Open	;
5	16	65	186.41	203.2	0.0015	0	Open	;
50	8	10	22.23	304.8	0.0015	0	Open	;
51	7	8	116.84	457.2	0.0015	0	Open	;
52	7	56	100.31	304.8	0.0015	0	Open	;
53	6	12	47.57	406.4	0.0015	0	Open	;
54	5	13	105.55	762	0.0015	0	Open	;
55	4	16	239.63	762	0.0015	0	Open	;
56	4	55	138.87	457.2	0.0015	0	Open	;
57	3	4	123.72	457.2	0.0015	0	Open	;
58	2	18	97.24	203.2	0.0015	0	Open	;
59	2	54	11.06	355.6	0.0015	0	Open	;
6	39	45	14.8	355.6	0.0015	0	Open	;
60	1	2	108.67	508	0.0015	0	Open	;
61	47	9	168.89	304.8	0.0015	0	Open	;
62	49	47	195.14	152.4	0.0015	0	Open	;
63	13	6	57.56	508	0.0015	0	Open	;
64	52	22	40.24	762	0.0015	0	Open	;
65	51	52	321.65	355.6	0.0015	0	Open	;
66	50	51	8.86	457.2	0.0015	0	Open	;
67	53	50	82.83	457.2	0.0015	0	Open	;
7	46	64	192.57	101.6	0.0015	0	Open	;
8	45	46	136.75	406.4	0.0015	0	Open	;
9	44	45	16.36	457.2	0.0015	0	Open	;

[PUMPS]
;ID	Node1	Node2	Parameters

[VALVES]
;ID	Node1	Node2	Diameter	Type	Setting	MinorLoss

[TAGS]

[DEMANDS]
;Junction	Demand	Pattern	Category

[STATUS]
;ID	Status/Setting

[PATTERNS]
;ID	M1	M2	M3	M4	M5	M6
1	0.620000004768372

[CURVES]
;ID	X-Value	Y-Value

[CONTROLS]

[RULES]

[ENERGY]
Global Efficiency	75
Global Price	0
Demand Charge	0

[EMITTERS]
;Junction	Coefficient
1	0	;
10	0	;
11	0	;
12	0	;
13	0	;
14	0	;
15	0	;
16	0	;
17	0	;
18	0	;
19	0	;
2	0	;
20	0	;
21	0	;
22	0	;
23	0	;
24	0	;
25	0	;
26	0	;
27	0	;
28	0	;
29	0	;
3	0	;
30	0	;
31	0	;
32	0	;
33	0	;
34	0	;
35	0	;
36	0	;
37	0	;
38	0	;
39	0	;
4	0	;
40	0	;
41	0	;
42	0	;
43	0	;
44	0	;
45	0	;
46	0	;
47	0	;
48	0	;
49	0	;
5	0	;
50	0	;
51	0	;
52	0	;
53	0	;
54	0	;
55	0	;
56	0	;
57	0	;
58	0	;
6	0	;
60	0	;
61	0	;
62	0	;
63	0	;
64	0	;
65	0	;
66	0	;
67	0	;
68	0	;
7	0	;
8	0	;
9	0	;

[QUALITY]
;Node	InitQual

[SOURCES]
;Node	Type	Quality	Pattern

[REACTIONS]
Order Bulk	1
Order Tank	1
Order Wall	1
Global Bulk	0
Global Wall	0
Limiting Potential	0

[REACTIONS]
;Var	Value

[MIXING]
;Tank	Model

[TIMES]
;Var	Value
Duration	00:15
Pattern Timestep	01:00
Hydraulic Timestep	01:00
Quality Timestep	0:05
Pattern Start	00:00
Report Timestep	01:00
Report Start	00:00
Start ClockTime	00:00
Statistic	None

[REPORT]
;Var	Value
Status	No
Summary	No
Page	0

[OPTIONS]
Units	LPS
HeadLoss	D-W
Specific Gravity	1
Viscosity	1
Trials	1000
Accuracy	0.001
Unbalanced	Continue 10
Pattern	1
Demand Multiplier	1
Emitter Exponent	0.5
Quality	None mg/L
Diffusivity	1
Tolerance	0.01

[COORDINATES]
;Node	X-Coord	Y-Coord
1	1105236.66	960523.9
10	1105207.45	960469.5
100	1105585.14	960662.95
11	1104982.98	961308.45
12	1104836.16	960880.48
13	1104791.17	960974.99
14	1104898.3	961197.27
15	1104782.12	961084.13
16	1104767.01	961080.52
17	1105360.95	960725.16
18	1105327.59	960708.3
19	1105340.57	960733.64
2	1105289.69	960618.76
20	1105369.36	960721.66
21	1105377.23	960718.39
22	1105384.83	960736.29
23	1105222.77	960530.46
24	1105258.05	960600.75
25	1105209.04	960711.69
26	1105288.34	960662.97
27	1105351.48	961012.69
28	1105329.63	960999.79
29	1105015.83	960805.3
3	1104645.53	961412.36
30	1105320.72	961013.59
31	1105180.5	961036.65
32	1105168.27	961306.36
33	1105249.94	961173.65
34	1105294.36	961076.37
35	1105496.84	961023.56
36	1105670.05	961273.42
37	1105828.46	961478.81
38	1105644.91	961238.61
39	1105650.92	961246.37
4	1104717.98	961312.44
40	1105339.23	961337.82
41	1105447.98	961229.37
42	1105529.41	961110.73
43	1105556.26	961146.52
44	1105629.2	961241.04
45	1105638.54	961254.47
46	1105718.26	961365.58
47	1105095.76	960319.67
48	1105615.98	961418.69
49	1105018.99	960140.27
5	1104767.26	961077.79
50	1105191.56	960469.08
51	1105199.39	960464.92
52	1105347.21	960750.58
53	1105142.42	960403.04
54	1105299.69	960614.04
55	1104607.36	961228.5
56	1105075.17	960294.25
57	1104626.23	961042.21
58	1104845.82	961236.94
6	1104820.21	960925.3
60	1105377.3	960922.57
61	1105828.43	961094.13
62	1106332.26	961137.09
63	1105949.84	961582.85
64	1105839.86	961514.17
65	1104619.87	961160.04
66	1105001	960923
67	1105108.05	960195.27
68	1105491.84	960149.5
7	1105122.39	960382.76
8	1105187.55	960479.39
9	1105198.91	960452.67

[VERTICES]
;Link	X-Coord	Y-Coord
62	1105045.83	960200.53
61	1105124.18	960366.91
57	1104687.84	961346.96
55	1104750.27	961226.01
55	1104767.01	961152.32
51	1105164.04	960437.25
45	1104839.74	960858.19
45	1104795.18	960767.2
45	1104813.42	960716.56
45	1104976.36	960521.91
44	1104755.3	960946.84
44	1104738.19	960941.23
44	1104704.77	960963.71
42	1104852.88	961120.32
39	1105437	960939.31
34	1105382.25	960730.21
34	1105383.45	960732.54
29	1105294.5	960675.97
29	1105398.7	960886.58
19	1105693.24	961269.27
19	1105791.6	961269.43
19	1105822.35	961240.47
19	1105826.7	961169.43
18	1105750.5	961391.44
17	1105898.29	961421.61
17	1105959.33	961402.44
17	1106098.8	961395.87
17	1106107.61	961393.7
17	1106123.98	961401.58
17	1106207.38	961302.02
17	1106246.21	961239.68
13	1105406.53	961299.47
13	1105442.54	961284.81
12	1105487.2	961189.16
7	1105785.13	961458.77
6	1105645.35	961249.87
6	1105641.04	961252.79
5	1104680.69	961080.56
4	1104855.52	960931.84
4	1104955.45	960877.49
3	1105174.27	960288.48
2	1105281.73	960382.06
2	1105338.21	960422.01
2	1105340.77	960107.21
1	1105697.6	961381.03
67	1105167.05	960428.5
65	1105201.91	960470.1
65	1105203.4	960473.01
65	1105229.81	960524.66
65	1105231.28	960528.2
64	1105364.54	960744
64	1105370.38	960741.78

[LABELS]
;X-Coord	Y-Coord	Label & Anchor Nodo

[BACKDROP]
;Var	Val1	Val2	Val3	Val4

[END]

