[TITLE]

[JUNCTIONS]
;ID	Elev	Demand	Pattern
1	949.817	0.0169487863	todoslosdias	;
10	960.8	0	todoslosdias	;
100	921.17	0.0495163701	todoslosdias	;
1000	944.671	0.12725855045	todoslosdias	;
101	944.633	0	todoslosdias	;
102	943.178	0.31088854135	todoslosdias	;
103	947.196	0.297284455	todoslosdias	;
104	944.81	0.31909317	todoslosdias	;
105	946.775	0.2890496762	todoslosdias	;
106	944.814	0.1177854926	todoslosdias	;
107	944.91	0.1758118685	todoslosdias	;
108	946.009	0.09478765185	todoslosdias	;
109	947.164	0.0034239963	todoslosdias	;
11	960.8	0	todoslosdias	;
110	944.696	0.42919386045	todoslosdias	;
111	951.551	0.10746992035	todoslosdias	;
112	944.709	0.10320238015	todoslosdias	;
113	947.987	0.17348770125	todoslosdias	;
114	944.188	0.21296430475	todoslosdias	;
115	944.581	0.1738508485	todoslosdias	;
116	943.643	0.3081960332	todoslosdias	;
117	945.337	0.1117934973	todoslosdias	;
118	948.606	0.07576578625	todoslosdias	;
119	945.207	0.27078108865	todoslosdias	;
12	961	0	todoslosdias	;
120	946.662	0.0979263098	todoslosdias	;
121	945.028	0.24091968855	todoslosdias	;
122	945.028	0.17071737	todoslosdias	;
123	945.803	0.9078338675	todoslosdias	;
124	944.364	0.3933238617	todoslosdias	;
125	943.798	0.1182109033	todoslosdias	;
126	942.443	0.08405912585	todoslosdias	;
127	943.528	0.1447364962	todoslosdias	;
128	944.407	0.14688185705	todoslosdias	;
129	944.174	0.27431403445	todoslosdias	;
13	926.034	0.123468969	todoslosdias	;
130	944.33	0.21748951105	todoslosdias	;
131	948.436	0.12102272695	todoslosdias	;
132	950.261	0	todoslosdias	;
133	950.261	0.0140954525	todoslosdias	;
134	944.666	0.05638181355	todoslosdias	;
135	944.514	0.0461824541	todoslosdias	;
136	944.01	0.16413499905	todoslosdias	;
137	946.638	0.12719110755	todoslosdias	;
138	945.128	0.27632588335	todoslosdias	;
139	948.753	0.18047057255	todoslosdias	;
14	942.126	0.2652414805	todoslosdias	;
140	946.656	0.25811230305	todoslosdias	;
141	946.029	0.01930927005	todoslosdias	;
142	945.028	0.2099480792	todoslosdias	;
143	946.057	0	todoslosdias	;
144	947.897	0.27473424795	todoslosdias	;
145	952.961	0.08815754405	todoslosdias	;
146	952.946	0	todoslosdias	;
147	950.09	0.09952417545	todoslosdias	;
148	950.519	0.06711033955	todoslosdias	;
149	955.174	0	todoslosdias	;
15	941.784	0.5657148508	todoslosdias	;
150	948.213	0.1294322687	todoslosdias	;
151	948.49	0.20491065405	todoslosdias	;
152	947.922	0.08625878395	todoslosdias	;
153	945.212	0.03552137455	todoslosdias	;
154	947.878	0.07561326405	todoslosdias	;
155	946.549	0.5819342115	todoslosdias	;
156	949.731	0.1657733276	todoslosdias	;
157	944.713	0.1388119509	todoslosdias	;
158	947.153	0.0623686223	todoslosdias	;
159	948.356	0.08137699435	todoslosdias	;
16	941.599	0.1992766159	todoslosdias	;
160	948.157	0	todoslosdias	;
161	947.193	0.1522796711	todoslosdias	;
162	951.896	0.13627508185	todoslosdias	;
163	952.939	0.0355680677	todoslosdias	;
164	944.624	0.0953012481	todoslosdias	;
165	944.972	0.2652871264	todoslosdias	;
166	944.584	0.2629577655	todoslosdias	;
167	943.435	0.01141332455	todoslosdias	;
168	943.16	0.07053433585	todoslosdias	;
169	943.37	0.14038387315	todoslosdias	;
17	941.944	0.61058684015	todoslosdias	;
170	952.417	0.12319125865	todoslosdias	;
171	942.059	0.04919661	todoslosdias	;
172	942.98	0.2356643715	todoslosdias	;
173	942.448	0.29412289245	todoslosdias	;
174	943.651	0.2382168002	todoslosdias	;
175	943.59	0.0311583713	todoslosdias	;
176	943.522	0.16559693875	todoslosdias	;
177	944.973	0.06522714265	todoslosdias	;
178	944.984	0	todoslosdias	;
179	946.88	0.14431108905	todoslosdias	;
18	942.044	0	todoslosdias	;
180	945	0.15501886175	todoslosdias	;
181	952.431	0.1447492265	todoslosdias	;
182	950.261	0.20241528805	todoslosdias	;
183	947.032	0.1439323786	todoslosdias	;
184	948.417	0.0017690644	todoslosdias	;
185	950.091	0.0184325159	todoslosdias	;
186	946.91	0.1247216814	todoslosdias	;
187	950.63	0.24116351675	todoslosdias	;
188	946.268	0.55657069335	todoslosdias	;
189	950.702	0.22427179315	todoslosdias	;
19	942.269	0.06026234695	todoslosdias	;
190	944.785	0.3780818941	todoslosdias	;
191	949.308	0.1706603073	todoslosdias	;
192	948.901	0.0572378144	todoslosdias	;
193	945.013	0.1914948029	todoslosdias	;
194	948.337	0.14800485695	todoslosdias	;
195	948.444	0.11582966625	todoslosdias	;
196	946.354	0.25489581845	todoslosdias	;
197	945.013	0.42283767775	todoslosdias	;
198	945.013	0.26881281245	todoslosdias	;
199	944.948	0.18802757825	todoslosdias	;
2	950.02	0	todoslosdias	;
20	941.996	0	todoslosdias	;
200	945.08	0.4084880204	todoslosdias	;
201	945.013	0.43894083985	todoslosdias	;
202	944.596	0.1159022957	todoslosdias	;
204	946.449	0.29890455075	todoslosdias	;
205	946.528	0.23923363025	todoslosdias	;
206	947.116	0.25775953245	todoslosdias	;
207	946.587	0.0387793622	todoslosdias	;
208	944.136	0.0804639237	todoslosdias	;
209	944.118	0.0409478868	todoslosdias	;
21	941.854	0.4649554351	todoslosdias	;
210	944.09	0.09116132685	todoslosdias	;
211	944.074	0.65003543415	todoslosdias	;
212	943.773	0.12491882	todoslosdias	;
213	943.713	0.072474599	todoslosdias	;
214	943.59	0.16403020305	todoslosdias	;
215	945.995	0.1817571742	todoslosdias	;
216	943.388	0.19850708595	todoslosdias	;
217	944.679	0.23957083765	todoslosdias	;
218	946.5	0.2884976796	todoslosdias	;
219	944.805	0.24851472895	todoslosdias	;
22	921.194	0.006351273	todoslosdias	;
220	943.26	0	todoslosdias	;
221	945.261	0.2351663349	todoslosdias	;
223	942.819	0.00182613065	todoslosdias	;
224	942.927	0.4265646488	todoslosdias	;
225	943.545	0.04622395715	todoslosdias	;
226	942.359	0.10100790505	todoslosdias	;
227	944.382	0.35898534005	todoslosdias	;
228	943.785	0	todoslosdias	;
229	944.128	0.0757654419	todoslosdias	;
23	941.738	0.10913731275	todoslosdias	;
230	943.735	0.01866078445	todoslosdias	;
231	944.183	0	todoslosdias	;
232	943.982	0	todoslosdias	;
233	943.853	0.03598309465	todoslosdias	;
234	943.772	0	todoslosdias	;
235	944.184	0	todoslosdias	;
236	944.305	0.010956791	todoslosdias	;
237	944.32	0.0427428946	todoslosdias	;
238	944.23	0.0409167604	todoslosdias	;
239	944.107	0.1434654755	todoslosdias	;
24	941.696	0	todoslosdias	;
240	944.331	0.03743569785	todoslosdias	;
241	944.442	0.1651663486	todoslosdias	;
242	944.227	0	todoslosdias	;
243	944.308	0.7260274264	todoslosdias	;
244	945.823	0.9183263469	todoslosdias	;
245	945.013	0.1314814849	todoslosdias	;
246	944.364	0	todoslosdias	;
247	944.489	0.284777755	todoslosdias	;
248	944.366	0.224152695	todoslosdias	;
249	944.227	0.0304165065	todoslosdias	;
25	941.651	0	todoslosdias	;
250	944.281	0.10301218	todoslosdias	;
251	944.151	0	todoslosdias	;
252	948.338	0	todoslosdias	;
253	948.678	0.0535284833	todoslosdias	;
254	944.12	0.0079893247	todoslosdias	;
255	932.237	0.0042155352	todoslosdias	;
256	932.059	0.0126800408	todoslosdias	;
257	932.211	0	todoslosdias	;
258	950.02	0.01963091425	todoslosdias	;
259	961.5	0	todoslosdias	;
26	940.573	0.45647585895	todoslosdias	;
260	959.7	0	todoslosdias	;
261	960.1	0	todoslosdias	;
262	925.75	0.048224724	todoslosdias	;
263	941.909	0.4185130642	todoslosdias	;
264	941.179	0.2537077932	todoslosdias	;
265	941.907	0	todoslosdias	;
266	941.693	0	todoslosdias	;
267	935.016	0.0943485784	todoslosdias	;
268	933.205	0.05578843968	todoslosdias	;
269	941.36	0.35899943	todoslosdias	;
27	935.015	0.20075583872	todoslosdias	;
270	928.631	0.0477553296	todoslosdias	;
271	929.239	0.02387182	todoslosdias	;
272	928.824	0.0204989712	todoslosdias	;
273	933.099	0.0081299104	todoslosdias	;
274	924.546	0.037101338	todoslosdias	;
275	924.699	0.017809753	todoslosdias	;
276	922.769	0.020299932	todoslosdias	;
277	923.485	0.004454265	todoslosdias	;
278	919.885	0.0150791769	todoslosdias	;
279	916.038	0.0679608585	todoslosdias	;
28	935.016	0.11090792128	todoslosdias	;
280	919.141	0.0057331125	todoslosdias	;
281	919.324	0.0356047461	todoslosdias	;
282	920.124	0.0022714119	todoslosdias	;
283	924.992	0.016894933	todoslosdias	;
284	935.015	0.01524691392	todoslosdias	;
285	935.015	0.0364197528	todoslosdias	;
286	934.767	0.0536581088	todoslosdias	;
287	928.891	0.0700278248	todoslosdias	;
288	925.004	0.021572788	todoslosdias	;
289	922.873	0.0292824072	todoslosdias	;
29	941.73	0.778573255	todoslosdias	;
290	921.304	0.0156631428	todoslosdias	;
291	926.279	0.032801979	todoslosdias	;
292	926.264	0.035305895	todoslosdias	;
293	925.653	0.010513117	todoslosdias	;
294	925.222	0.0577427922	todoslosdias	;
295	921.046	0.0354048291	todoslosdias	;
296	920.237	0.0423177093	todoslosdias	;
297	929.61	0.0251800416	todoslosdias	;
298	916.652	0.0288194436	todoslosdias	;
299	927.453	0.025997826	todoslosdias	;
3	959.7	0	todoslosdias	;
30	941.364	0.00958719035	todoslosdias	;
300	928.065	0.028324332	todoslosdias	;
301	929.789	0.03127197952	todoslosdias	;
302	940.697	0.024030234	todoslosdias	;
303	927.005	0	todoslosdias	;
304	921.702	0.0325520829	todoslosdias	;
305	931.625	0.0765817904	todoslosdias	;
306	944.678	0.0402319654	todoslosdias	;
307	944.945	0.22388270605	todoslosdias	;
308	946.534	0	todoslosdias	;
309	945.028	0.2580915533	todoslosdias	;
31	940.67	0.06034535305	todoslosdias	;
310	945.028	0.0758570958	todoslosdias	;
311	945.028	0.3402830419	todoslosdias	;
312	945.028	0.09141034515	todoslosdias	;
313	944.287	0.11197581465	todoslosdias	;
314	946.944	0.08634179005	todoslosdias	;
315	944.598	0.017797002	todoslosdias	;
316	944.662	0	todoslosdias	;
317	948.247	0.14930701825	todoslosdias	;
318	944.233	0.2650173619	todoslosdias	;
319	944.924	0.2098048935	todoslosdias	;
32	940.623	0.01341065395	todoslosdias	;
320	944.205	0.56134250395	todoslosdias	;
321	945.028	0.064080624	todoslosdias	;
322	948.296	0.2003857921	todoslosdias	;
323	945.028	0	todoslosdias	;
324	944.669	0	todoslosdias	;
325	944.916	0.0953998174	todoslosdias	;
326	944.969	0	todoslosdias	;
327	946.771	0.3666426226	todoslosdias	;
328	948.468	0.0595931116	todoslosdias	;
329	950.787	0	todoslosdias	;
33	935.015	0.07294799808	todoslosdias	;
330	949.697	0.1734358251	todoslosdias	;
331	946.468	0	todoslosdias	;
332	944.289	0.0421151623	todoslosdias	;
333	946.689	0	todoslosdias	;
334	945.895	0.31955228795	todoslosdias	;
335	947.35	0.06534127515	todoslosdias	;
336	945.895	0	todoslosdias	;
337	943.35	0	todoslosdias	;
338	944.96	0.08109165955	todoslosdias	;
339	943.565	0.0465092884	todoslosdias	;
34	935.016	0.00870370368	todoslosdias	;
340	948.708	0.03127250735	todoslosdias	;
341	944.448	0.0916334165	todoslosdias	;
342	942.915	0.08725485715	todoslosdias	;
344	942.374	0	todoslosdias	;
345	942.311	0	todoslosdias	;
346	944.049	0.0447972938	todoslosdias	;
347	944.628	0.011230709	todoslosdias	;
348	944.521	0.09080335905	todoslosdias	;
349	944.328	0.0071333274	todoslosdias	;
35	935.016	0.08681631168	todoslosdias	;
350	944.356	0	todoslosdias	;
351	944.212	0	todoslosdias	;
352	945.876	0	todoslosdias	;
353	945.013	0.1324059617	todoslosdias	;
354	943.869	0	todoslosdias	;
355	944.644	0.191695605	todoslosdias	;
356	944.356	0	todoslosdias	;
357	944.789	0.052806715	todoslosdias	;
358	931.019	0.0102366256	todoslosdias	;
359	943.6	0	 	;
36	932.328	0.0585098672	todoslosdias	;
360	944.6	0	 	;
37	930.063	0.060715664	todoslosdias	;
38	935.015	0.02747942336	todoslosdias	;
39	928.714	0.0226442672	todoslosdias	;
4	961.5	0	todoslosdias	;
40	930.11	0.0336805552	todoslosdias	;
41	927.889	0.169500268	todoslosdias	;
42	924.994	0.109516754	todoslosdias	;
43	924.044	0.1242566289	todoslosdias	;
44	923.602	0.060132576	todoslosdias	;
45	923.247	0.0434573586	todoslosdias	;
46	923.507	0.0214646472	todoslosdias	;
47	923.392	0.0383391207	todoslosdias	;
48	923.623	0.0235085229	todoslosdias	;
49	920.056	0.0236821338	todoslosdias	;
5	961.5	0	todoslosdias	;
50	920.137	0.1273007826	todoslosdias	;
51	919.923	0.0399594897	todoslosdias	;
52	919.218	0.0616041369	todoslosdias	;
53	919.227	0.0447416883	todoslosdias	;
54	920.28	0	todoslosdias	;
55	920.358	0.0525791772	todoslosdias	;
56	920.148	0.1485427176	todoslosdias	;
57	919.551	0.0402843528	todoslosdias	;
58	924.994	0.059466189	todoslosdias	;
59	933.461	0.164669144	todoslosdias	;
6	960.2	0	todoslosdias	;
60	933.843	0.0553439472	todoslosdias	;
61	929.919	0.0534254576	todoslosdias	;
62	930.108	0.0136702672	todoslosdias	;
63	930.042	0.07223298	todoslosdias	;
64	935.015	0.02921156032	todoslosdias	;
65	925.086	0.0574850061	todoslosdias	;
66	924.549	0.0162905085	todoslosdias	;
67	924.528	0.0446180553	todoslosdias	;
68	922.547	0.0625289346	todoslosdias	;
69	922.439	0.0480350376	todoslosdias	;
7	960.1	0	todoslosdias	;
70	930.331	0.1123716328	todoslosdias	;
71	930.091	0.0931165176	todoslosdias	;
72	927.349	0.178504667	todoslosdias	;
73	926.268	0.037269395	todoslosdias	;
74	927.028	0.196148992	todoslosdias	;
75	926.962	0.080543866	todoslosdias	;
76	926.434	0.13965874	todoslosdias	;
77	925.127	0.0407565243	todoslosdias	;
78	925.084	0	todoslosdias	;
79	925.082	0.069670665	todoslosdias	;
8	953.308	0	todoslosdias	;
80	921.22	0.0829782189	todoslosdias	;
81	921.681	0.0251407305	todoslosdias	;
82	922.487	0	todoslosdias	;
83	929.285	0.163891521	todoslosdias	;
84	929.467	0.0467803024	todoslosdias	;
85	921.292	0	todoslosdias	;
86	921.75	0.0895780728	todoslosdias	;
87	921.313	0.0593781561	todoslosdias	;
88	921.273	0	todoslosdias	;
89	925.705	0.110180217	todoslosdias	;
9	961	0	todoslosdias	;
90	927.056	0.001253858	todoslosdias	;
91	927.072	0.033195088	todoslosdias	;
92	927.007	0	todoslosdias	;
93	927.909	0.004517104	todoslosdias	;
94	930.065	0.0485444728	todoslosdias	;
95	933.563	0.00497685168	todoslosdias	;
96	933.591	0.0398684772	todoslosdias	;
97	933.163	0.0128918816	todoslosdias	;
98	940.664	0	todoslosdias	;
99	941.853	0.10957308945	todoslosdias	;

[RESERVOIRS]
;ID	Head	Pattern
203	1000	 	;

[TANKS]
;ID	Elevation	InitLevel	MinLevel	MaxLevel	Diameter	MinVol	VolCurve

[PIPES]
;ID	Node1	Node2	Length	Diameter	Roughness	MinorLoss	Status
1	6	7	1	203.2	0.0015	0.003	Open	;
10	4	12	2	101.6	0.0015	0.008	Open	;
100	76	73	300	76.2	0.0015	0.9	Open	;
1001	5	203	1	76.2	0.0015	0.004	Open	;
1002	4	203	1	76.2	0.0015	0.004	Open	;
1003	203	259	1	203.2	0.0015	0.003	Open	;
1004	2	139	85	76.2	0.0015	0.34	Open	;
1005	1	2	1.48	76.2	0.0015	0.011	Open	;
1006	2	258	11.32	76.2	0.0015	0.045	Open	;
1008	261	260	30	76.2	0.0015	0.09	Open	;
101	73	293	240	76.2	0.0015	0.72	Open	;
102	74	92	8	76.2	0.0015	0.024	Open	;
103	77	294	280	76.2	0.0015	0.84	Open	;
104	78	79	8.88	76.2	0.0015	0.032	Open	;
105	79	77	232.36	76.2	0.0015	0.697	Open	;
106	65	78	6.9	76.2	0.0015	0.021	Open	;
107	80	88	15	76.2	0.0015	0.045	Open	;
108	81	295	180	76.2	0.0015	0.54	Open	;
109	80	296	170	76.2	0.0015	0.51	Open	;
11	15	216	338	76.2	0.0015	1.352	Open	;
110	82	69	20	76.2	0.0015	0.065	Open	;
111	83	41	591	76.2	0.0015	1.773	Open	;
112	40	84	246	76.2	0.0015	0.738	Open	;
113	84	297	342	76.2	0.0015	1.026	Open	;
114	85	87	5	76.2	0.0015	0.015	Open	;
115	81	80	270	76.2	0.0015	0.81	Open	;
116	69	86	727.46	101.6	0.0015	2.182	Open	;
117	86	81	22.34	76.2	0.0015	0.067	Open	;
118	87	298	1850	76.2	0.0015	5.55	Open	;
119	88	85	10	76.2	0.0015	0.035	Open	;
12	16	263	107	76.2	0.0015	0.321	Open	;
120	89	65	170	76.2	0.0015	0.51	Open	;
121	90	74	23.26	76.2	0.0015	0.07	Open	;
122	91	299	137	76.2	0.0015	0.411	Open	;
123	92	75	14.63	76.2	0.0015	0.049	Open	;
124	93	300	159.47	76.2	0.0015	0.478	Open	;
125	84	270	249	76.2	0.0015	0.747	Open	;
126	94	301	317	76.2	0.0015	0.951	Open	;
127	95	96	9.64	76.2	0.0015	0.034	Open	;
128	96	60	672.65	76.2	0.0015	2.018	Open	;
129	97	268	7.1	76.2	0.0015	0.021	Open	;
13	17	264	167	76.2	0.0015	0.501	Open	;
130	38	284	16	76.2	0.0015	0.053	Open	;
131	28	34	18.74	76.2	0.0015	0.056	Open	;
132	98	32	14.1	76.2	0.0015	0.042	Open	;
133	99	30	125.76	76.2	0.0015	0.377	Open	;
134	89	13	100	76.2	0.0015	0.3	Open	;
135	98	302	1	76.2	0.0015	0.008	Open	;
136	90	303	1	76.2	0.0015	0.008	Open	;
137	100	56	440	76.2	0.0015	1.32	Open	;
138	57	50	427	101.6	0.0015	1.281	Open	;
139	86	304	11	76.2	0.0015	0.038	Open	;
14	18	23	115	76.2	0.0015	0.46	Open	;
140	97	305	465.63	76.2	0.0015	1.397	Open	;
141	101	164	3.71	76.2	0.0015	0.011	Open	;
143	103	243	92	76.2	0.0015	0.276	Open	;
144	104	217	86	76.2	0.0015	0.258	Open	;
145	105	218	96	76.2	0.0015	0.384	Open	;
146	106	245	85	76.2	0.0015	0.34	Open	;
147	107	191	96	76.2	0.0015	0.288	Open	;
148	108	197	90	76.2	0.0015	0.27	Open	;
149	109	206	9.23	76.2	0.0015	0.033	Open	;
15	19	99	95.36	101.6	0.0015	0.286	Open	;
150	110	306	9.94	76.2	0.0015	0.03	Open	;
151	111	161	88.5	101.6	0.0015	0.354	Open	;
152	112	307	87	76.2	0.0015	0.261	Open	;
153	113	103	91	76.2	0.0015	0.364	Open	;
154	114	128	52	76.2	0.0015	0.156	Open	;
155	115	114	97	76.2	0.0015	0.291	Open	;
156	116	169	10	76.2	0.0015	0.03	Open	;
157	7	3	94	203.2	0.0015	0	Open	;
158	1	308	97	76.2	0.0015	0.388	Open	;
159	117	142	82	76.2	0.0015	0.246	Open	;
16	20	99	33.67	101.6	0.0015	0.101	Open	;
160	118	155	93	76.2	0.0015	0.372	Open	;
161	119	123	93	76.2	0.0015	0.372	Open	;
162	120	309	45.22	101.6	0.0015	0.181	Open	;
163	121	310	60	76.2	0.0015	0.18	Open	;
164	122	311	70	76.2	0.0015	0.21	Open	;
165	122	153	52	76.2	0.0015	0.156	Open	;
166	119	152	90	76.2	0.0015	0.27	Open	;
167	123	144	90	76.2	0.0015	0.27	Open	;
168	104	312	60	76.2	0.0015	0.18	Open	;
169	124	313	85	76.2	0.0015	0.255	Open	;
17	20	265	38.8	76.2	0.0015	0.116	Open	;
170	120	314	50	76.2	0.0015	0.15	Open	;
171	125	211	188	76.2	0.0015	0.752	Open	;
172	126	171	115	76.2	0.0015	0.46	Open	;
173	127	168	88	76.2	0.0015	0.264	Open	;
174	128	315	40	76.2	0.0015	0.12	Open	;
175	129	128	60	76.2	0.0015	0.18	Open	;
176	130	316	60	76.2	0.0015	0.18	Open	;
177	131	317	44.68	76.2	0.0015	0.134	Open	;
178	132	182	4.79	101.6	0.0015	0.019	Open	;
179	133	185	12.83	76.2	0.0015	0.056	Open	;
18	21	19	83.34	101.6	0.0015	0.25	Open	;
180	106	318	43	76.2	0.0015	0.129	Open	;
181	134	319	87	76.2	0.0015	0.348	Open	;
182	135	320	80	76.2	0.0015	0.32	Open	;
183	136	135	50	76.2	0.0015	0.15	Open	;
184	137	205	87	76.2	0.0015	0.261	Open	;
185	138	200	30	76.2	0.0015	0.09	Open	;
186	125	359	2	76.2	0.0015	0	Open	;
187	360	211	150.2	76.2	0.0015	0	Open	;
188	139	140	89	76.2	0.0015	0.267	Open	;
189	140	141	1	76.2	0.0015	0.003	Open	;
19	22	100	1	76.2	0.0015	0.008	Open	;
190	141	117	13.84	76.2	0.0015	0.06	Open	;
191	142	321	100	76.2	0.0015	0.3	Open	;
192	143	141	7.3	76.2	0.0015	0.029	Open	;
193	123	215	60	76.2	0.0015	0.18	Open	;
194	144	150	11.88	76.2	0.0015	0.041	Open	;
195	139	150	83	76.2	0.0015	0.332	Open	;
196	8	145	8.47	76.2	0.0015	0.025	Open	;
197	145	181	12.8	76.2	0.0015	0.043	Open	;
198	146	163	5	76.2	0.0015	0.025	Open	;
199	147	148	5	76.2	0.0015	0.025	Open	;
2	3	149	94	203.2	0.0015	0.282	Open	;
20	23	266	7.34	76.2	0.0015	0.029	Open	;
200	148	145	90	76.2	0.0015	0.36	Open	;
201	146	170	2.5	152.4	0.0015	0.013	Open	;
202	145	146	4.78	76.2	0.0015	0.019	Open	;
203	149	146	70	203.2	0.0015	0.21	Open	;
204	150	322	89	76.2	0.0015	0.356	Open	;
205	151	322	87	76.2	0.0015	0.348	Open	;
206	152	322	10.73	76.2	0.0015	0.037	Open	;
207	119	323	10.88	76.2	0.0015	0.033	Open	;
208	153	119	0.5	76.2	0.0015	0.002	Open	;
209	153	309	85	76.2	0.0015	0.34	Open	;
21	24	15	15.65	101.6	0.0015	0.068	Open	;
210	122	121	34	76.2	0.0015	0.102	Open	;
211	121	104	85	76.2	0.0015	0.255	Open	;
212	151	147	92	101.6	0.0015	0.368	Open	;
213	154	151	14.43	76.2	0.0015	0.063	Open	;
214	120	154	28.74	76.2	0.0015	0.115	Open	;
215	155	309	90	76.2	0.0015	0.36	Open	;
216	156	147	5	76.2	0.0015	0.02	Open	;
217	155	156	85	76.2	0.0015	0.255	Open	;
218	157	155	90	76.2	0.0015	0.36	Open	;
219	157	324	6.44	76.2	0.0015	0.024	Open	;
22	24	25	13.43	76.2	0.0015	0.059	Open	;
220	158	252	13.92	76.2	0.0015	0.047	Open	;
221	159	160	1	101.6	0.0015	0.003	Open	;
222	159	113	9.04	76.2	0.0015	0.041	Closed	;
223	160	179	14.93	101.6	0.0015	0.065	Open	;
224	103	161	0.5	76.2	0.0015	0.002	Open	;
225	161	183	53	76.2	0.0015	0.217	Open	;
226	162	111	9.96	76.2	0.0015	0.045	Open	;
227	163	162	80	101.6	0.0015	0.32	Open	;
228	164	324	6.62	76.2	0.0015	0.02	Open	;
229	124	164	1	76.2	0.0015	0.004	Open	;
23	25	16	15.34	76.2	0.0015	0.061	Open	;
230	115	101	1	76.2	0.0015	0.003	Open	;
231	101	112	11.32	76.2	0.0015	0.034	Open	;
232	165	307	1	76.2	0.0015	0.008	Open	;
233	360	128	50	76.2	0.0015	0.15	Open	;
234	116	114	238	76.2	0.0015	0.714	Open	;
235	116	211	86	76.2	0.0015	0.258	Open	;
236	167	216	9.2	76.2	0.0015	0.037	Open	;
237	167	124	226	76.2	0.0015	0.904	Open	;
238	127	359	24.97	76.2	0.0015	0.1	Open	;
239	168	223	10	76.2	0.0015	0.03	Open	;
24	23	24	12.37	76.2	0.0015	0.049	Open	;
240	165	158	90	76.2	0.0015	0.27	Open	;
241	169	125	86	76.2	0.0015	0.258	Open	;
242	17	263	1	76.2	0.0015	0.008	Open	;
243	170	159	85	152.4	0.0015	0.255	Open	;
244	18	20	8.76	101.6	0.0015	0.026	Open	;
245	171	18	1	101.6	0.0015	0.004	Open	;
246	172	126	90.09	76.2	0.0015	0.275	Closed	;
247	14	102	205.36	76.2	0.0015	0.821	Open	;
248	173	224	94	101.6	0.0015	0.376	Open	;
249	171	173	76	101.6	0.0015	0.304	Open	;
25	26	27	1235	76.2	0.0015	3.705	Open	;
250	174	175	11.92	101.6	0.0015	0.053	Open	;
251	175	176	13.72	76.2	0.0015	0.055	Open	;
252	176	224	142	101.6	0.0015	0.568	Open	;
253	174	166	188	101.6	0.0015	0.752	Open	;
254	166	325	98	101.6	0.0015	0.392	Open	;
255	177	325	14.77	101.6	0.0015	0.064	Open	;
256	178	177	5	76.2	0.0015	0.02	Open	;
257	177	326	1	76.2	0.0015	0.003	Open	;
258	179	177	90	101.6	0.0015	0.36	Open	;
259	180	178	9.35	76.2	0.0015	0.028	Open	;
26	27	33	14	76.2	0.0015	0.042	Open	;
260	180	243	91	76.2	0.0015	0.273	Open	;
261	181	326	200	76.2	0.0015	0.6	Open	;
262	162	182	90	76.2	0.0015	0.36	Open	;
263	182	133	1	76.2	0.0015	0.004	Open	;
264	183	327	53	101.6	0.0015	0.212	Open	;
265	105	327	34	76.2	0.0015	0.136	Open	;
266	131	184	13.66	76.2	0.0015	0.041	Open	;
267	184	328	11.61	76.2	0.0015	0.04	Open	;
268	105	328	39.4	76.2	0.0015	0.158	Open	;
269	185	328	90	76.2	0.0015	0.36	Open	;
27	28	35	29.56	76.2	0.0015	0.094	Open	;
270	133	187	95	76.2	0.0015	0.38	Open	;
271	186	188	10.75	76.2	0.0015	0.043	Open	;
272	187	329	5.37	101.6	0.0015	0.021	Open	;
273	187	186	90	76.2	0.0015	0.36	Open	;
274	188	219	68	76.2	0.0015	0.272	Open	;
275	189	187	5	76.2	0.0015	0.025	Open	;
276	189	330	152	76.2	0.0015	0.608	Open	;
277	190	106	1	76.2	0.0015	0.004	Open	;
278	188	190	143	76.2	0.0015	0.572	Open	;
279	107	190	1	76.2	0.0015	0.003	Open	;
28	29	21	243	76.2	0.0015	0.729	Open	;
280	191	330	1	101.6	0.0015	0.008	Open	;
281	192	330	90	76.2	0.0015	0.36	Open	;
282	193	197	90	76.2	0.0015	0.27	Open	;
283	194	193	92	76.2	0.0015	0.276	Open	;
284	194	192	2	76.2	0.0015	0.011	Open	;
285	193	201	2	76.2	0.0015	0.013	Open	;
286	195	192	5	76.2	0.0015	0.025	Open	;
287	196	195	80	76.2	0.0015	0.32	Open	;
288	108	196	2	76.2	0.0015	0.011	Open	;
289	196	331	4.99	76.2	0.0015	0.015	Open	;
29	30	98	225.13	76.2	0.0015	0.675	Open	;
290	197	198	70	76.2	0.0015	0.21	Open	;
291	198	199	40	76.2	0.0015	0.12	Open	;
292	199	332	66	76.2	0.0015	0.198	Open	;
293	199	110	80	76.2	0.0015	0.24	Open	;
294	138	110	132	76.2	0.0015	0.396	Open	;
295	200	198	90	76.2	0.0015	0.27	Open	;
296	201	320	240	76.2	0.0015	0.96	Open	;
297	202	135	25.05	76.2	0.0015	0.1	Open	;
298	1000	202	44	76.2	0.0015	0.176	Open	;
299	134	202	1	76.2	0.0015	0.009	Open	;
3	8	260	205	76.2	0.0015	0.615	Open	;
30	26	31	21.86	76.2	0.0015	0.071	Open	;
300	137	196	90	76.2	0.0015	0.27	Open	;
301	137	333	3.7	76.2	0.0015	0.011	Open	;
302	205	207	1	76.2	0.0015	0.008	Open	;
303	205	334	105	76.2	0.0015	0.315	Open	;
304	206	244	133.04	76.2	0.0015	0.399	Open	;
305	109	335	22.73	76.2	0.0015	0.073	Open	;
306	207	109	111	76.2	0.0015	0.333	Open	;
308	200	204	129	76.2	0.0015	0.387	Open	;
309	208	249	32.31	76.2	0.0015	0.129	Open	;
31	31	21	252.49	76.2	0.0015	0.757	Open	;
310	209	208	4.72	76.2	0.0015	0.014	Open	;
311	210	254	21.14	76.2	0.0015	0.09	Open	;
312	360	165	150	76.2	0.0015	0.45	Open	;
313	102	359	699	76.2	0.0015	2.097	Open	;
314	212	213	32.88	76.2	0.0015	0.099	Open	;
315	213	214	70	76.2	0.0015	0.21	Open	;
316	214	172	165	76.2	0.0015	0.495	Open	;
317	215	336	3.58	76.2	0.0015	0.016	Open	;
318	216	337	7.98	76.2	0.0015	0.037	Open	;
319	180	338	10.07	76.2	0.0015	0.035	Open	;
32	27	28	795	76.2	0.0015	2.385	Open	;
320	176	339	8.78	76.2	0.0015	0.04	Open	;
321	131	340	6.03	101.6	0.0015	0.023	Open	;
322	215	143	6.4	76.2	0.0015	0.019	Open	;
323	217	157	15.57	76.2	0.0015	0.052	Open	;
324	118	253	1	76.2	0.0015	0.009	Open	;
325	130	327	93	76.2	0.0015	0.372	Open	;
326	218	188	19.01	76.2	0.0015	0.081	Open	;
327	219	341	20	76.2	0.0015	0.06	Open	;
328	17	342	240	76.2	0.0015	0.72	Open	;
329	220	167	26.11	76.2	0.0015	0.078	Open	;
33	32	26	15.03	76.2	0.0015	0.05	Open	;
330	168	169	10	76.2	0.0015	0.03	Open	;
331	221	138	1	76.2	0.0015	0.008	Open	;
332	208	320	118	76.2	0.0015	0.472	Open	;
334	220	342	80	76.2	0.0015	0.325	Open	;
335	223	344	85.1	76.2	0.0015	0.26	Open	;
336	224	226	111.2	76.2	0.0015	0.334	Open	;
337	225	224	202.8	101.6	0.0015	0.608	Open	;
338	226	345	8.36	76.2	0.0015	0.03	Open	;
339	227	246	9.22	76.2	0.0015	0.033	Open	;
34	33	267	468	76.2	0.0015	1.404	Open	;
340	228	251	105	76.2	0.0015	0.315	Open	;
341	229	238	29	76.2	0.0015	0.092	Open	;
342	230	239	105	76.2	0.0015	0.32	Open	;
343	228	230	26	76.2	0.0015	0.078	Open	;
344	231	229	35	76.2	0.0015	0.105	Open	;
345	232	346	35	76.2	0.0015	0.105	Open	;
346	233	232	33	76.2	0.0015	0.099	Open	;
347	234	228	3.24	76.2	0.0015	0.01	Open	;
348	212	233	19.98	76.2	0.0015	0.065	Open	;
349	232	229	37	76.2	0.0015	0.111	Open	;
35	34	64	9.96	76.2	0.0015	0.035	Open	;
350	235	239	25.47	76.2	0.0015	0.076	Open	;
351	235	242	14.35	76.2	0.0015	0.043	Open	;
352	236	347	84	76.2	0.0015	0.252	Open	;
353	237	348	94	76.2	0.0015	0.282	Open	;
354	238	236	37.59	76.2	0.0015	0.113	Open	;
355	238	235	44.4	76.2	0.0015	0.138	Open	;
356	237	349	4.33	76.2	0.0015	0.018	Open	;
357	239	240	57	76.2	0.0015	0.171	Open	;
358	240	241	68	101.6	0.0015	0.204	Open	;
359	241	350	46	76.2	0.0015	0.138	Open	;
36	35	38	472.44	76.2	0.0015	1.417	Open	;
360	240	350	6.8	76.2	0.0015	0.02	Open	;
361	242	351	3.99	101.6	0.0015	0.017	Open	;
362	242	350	65	76.2	0.0015	0.195	Open	;
363	243	227	477	76.2	0.0015	1.431	Open	;
364	227	210	105.8	76.2	0.0015	0.317	Open	;
365	209	212	116	76.2	0.0015	0.348	Open	;
366	237	238	24.33	76.2	0.0015	0.078	Open	;
367	244	352	1	76.2	0.0015	0.008	Open	;
368	245	353	1	76.2	0.0015	0.009	Open	;
369	233	354	17.8	76.2	0.0015	0.053	Open	;
37	36	40	303	76.2	0.0015	0.909	Open	;
370	246	236	41	76.2	0.0015	0.123	Open	;
371	233	234	41	76.2	0.0015	0.128	Open	;
372	245	193	12	76.2	0.0015	0.048	Open	;
373	244	221	177	76.2	0.0015	0.531	Open	;
374	247	355	264	76.2	0.0015	0.792	Open	;
375	248	356	80	76.2	0.0015	0.32	Open	;
376	249	250	27.87	76.2	0.0015	0.116	Open	;
377	247	357	36	76.2	0.0015	0.108	Open	;
378	248	247	48.01	76.2	0.0015	0.144	Open	;
379	250	248	53.9	76.2	0.0015	0.216	Open	;
38	37	83	240	76.2	0.0015	0.72	Open	;
380	251	235	8.58	76.2	0.0015	0.031	Open	;
381	252	160	3.8	101.6	0.0015	0.011	Open	;
382	253	252	1	76.2	0.0015	0.003	Open	;
383	254	209	3	101.6	0.0015	0.009	Open	;
384	255	257	1	76.2	0.0015	0.008	Open	;
385	36	257	6.37	76.2	0.0015	0.019	Open	;
386	256	358	192	76.2	0.0015	0.576	Open	;
387	256	257	18	76.2	0.0015	0.054	Open	;
388	14	18	15.44	76.2	0.0015	0.051	Open	;
389	204	137	31	76.2	0.0015	0.098	Open	;
39	38	268	697	76.2	0.0015	2.091	Open	;
390	13	262	160	76.2	0.0015	0.48	Open	;
4	9	12	0.5	76.2	0.0015	0.002	Open	;
40	29	269	203	76.2	0.0015	0.614	Open	;
41	39	270	63	76.2	0.0015	0.189	Open	;
42	39	271	226	76.2	0.0015	0.678	Open	;
43	39	272	280	76.2	0.0015	0.84	Open	;
44	40	94	33	76.2	0.0015	0.104	Open	;
45	36	273	190	76.2	0.0015	0.57	Open	;
46	41	93	10.53	101.6	0.0015	0.032	Open	;
47	42	58	3	76.2	0.0015	0.014	Open	;
48	43	274	320	76.2	0.0015	0.96	Open	;
49	44	275	300	76.2	0.0015	0.9	Open	;
5	6	10	8	203.2	0.0015	0.024	Open	;
50	44	276	220	76.2	0.0015	0.66	Open	;
51	45	44	326	76.2	0.0015	0.978	Open	;
52	46	45	104	76.2	0.0015	0.312	Open	;
53	47	277	180	76.2	0.0015	0.54	Open	;
54	46	48	11.2	76.2	0.0015	0.039	Open	;
55	48	43	104.8	76.2	0.0015	0.314	Open	;
56	46	47	22	76.2	0.0015	0.066	Open	;
57	49	278	180	76.2	0.0015	0.54	Open	;
58	50	51	180	76.2	0.0015	0.54	Open	;
59	51	52	943	76.2	0.0015	2.829	Open	;
6	10	259	2	203.2	0.0015	0.006	Open	;
60	52	53	2	76.2	0.0015	0.006	Open	;
61	53	279	804	76.2	0.0015	2.412	Open	;
62	52	280	80	76.2	0.0015	0.24	Open	;
63	51	281	256	76.2	0.0015	0.768	Open	;
64	54	282	25	76.2	0.0015	0.08	Open	;
65	55	100	119	76.2	0.0015	0.357	Open	;
66	56	50	380	76.2	0.0015	1.14	Open	;
67	57	49	280	76.2	0.0015	0.84	Open	;
68	49	56	460	76.2	0.0015	1.38	Open	;
69	54	55	22	76.2	0.0015	0.071	Open	;
7	11	261	5	76.2	0.0015	0.02	Open	;
70	47	54	1696	76.2	0.0015	5.088	Open	;
71	43	42	725	76.2	0.0015	2.175	Open	;
72	42	41	462	76.2	0.0015	1.386	Open	;
73	58	283	320	76.2	0.0015	0.96	Open	;
74	36	268	184.61	76.2	0.0015	0.554	Open	;
75	37	284	584	76.2	0.0015	1.752	Open	;
76	59	95	28.71	76.2	0.0015	0.086	Open	;
77	60	285	730	76.2	0.0015	2.19	Open	;
78	60	63	670	76.2	0.0015	2.01	Open	;
79	61	286	1120	76.2	0.0015	3.36	Open	;
8	12	11	3	76.2	0.0015	0.012	Open	;
80	62	63	40	76.2	0.0015	0.12	Open	;
81	63	61	520	76.2	0.0015	1.56	Open	;
82	64	59	430	76.2	0.0015	1.29	Open	;
83	63	287	450	76.2	0.0015	1.35	Open	;
84	65	67	170	76.2	0.0015	0.51	Open	;
85	66	288	313.18	76.2	0.0015	0.94	Open	;
86	67	66	6.8	76.2	0.0015	0.02	Open	;
87	68	82	17.27	76.2	0.0015	0.052	Open	;
88	67	68	480	76.2	0.0015	1.44	Open	;
89	68	289	65	76.2	0.0015	0.195	Open	;
9	9	5	2	76.2	0.0015	0.008	Open	;
90	69	290	320	76.2	0.0015	0.96	Open	;
91	59	70	602	76.2	0.0015	1.806	Open	;
92	70	71	177	76.2	0.0015	0.531	Open	;
93	71	72	716	76.2	0.0015	2.148	Open	;
94	72	90	108	76.2	0.0015	0.329	Open	;
95	73	291	40	76.2	0.0015	0.12	Open	;