[TITLE]

[JUNCTIONS]
;ID	Elev	Demand	Pattern
1	13.2	5.55	 	;
10	3.3	5.55	 	;
100	53.1	5.55	 	;
101	51.2	5.55	 	;
102	54.5	5.55	 	;
103	51.5	5.55	 	;
104	52.4	5.55	 	;
105	55.8	5.55	 	;
106	54	5.55	 	;
107	50	5.55	 	;
108	46.2	5.55	 	;
109	48.6	5.55	 	;
11	4	5.55	 	;
110	47.6	5.55	 	;
111	47.1	5.55	 	;
112	45.6	5.55	 	;
113	47.9	5.55	 	;
114	46	5.55	 	;
115	50	5.55	 	;
116	50	5.55	 	;
117	47.5	5.55	 	;
118	45	5.55	 	;
119	46	5.55	 	;
12	15	5.55	 	;
120	49.5	5.55	 	;
121	50	5.55	 	;
122	49.3	5.55	 	;
123	47.3	5.55	 	;
124	52.2	5.55	 	;
125	51.1	5.55	 	;
125001	49.4	5.55	 	;
126	49.3	5.55	 	;
127	56.5	5.55	 	;
127001	56	5.55	 	;
128	55	5.55	 	;
129	52.3	5.55	 	;
13	12.4	5.55	 	;
130	50.2	5.55	 	;
131	52.4	5.55	 	;
131001	57	5.55	 	;
132	55	5.55	 	;
133	46.6	5.55	 	;
134	28.8	5.55	 	;
135	60	5.55	 	;
136	43.3	5.55	 	;
137	25	5.55	 	;
138	23.6	5.55	 	;
139	42.5	5.55	 	;
14	19.25	5.55	 	;
140001	55.5	5.55	 	;
141	50	5.55	 	;
142	24	5.55	 	;
143	38.3	5.55	 	;
144	36.8	5.55	 	;
145	27	5.55	 	;
147	33	5.55	 	;
148	29	5.55	 	;
149	19	5.55	 	;
15	6.7	5.55	 	;
150	45	5.55	 	;
151	56.5	5.55	 	;
152	55	5.55	 	;
153	34	5.55	 	;
154	41.6	5.55	 	;
155	34	5.55	 	;
156	34.2	5.55	 	;
157	40	5.55	 	;
158	46	5.55	 	;
159	31.4	5.55	 	;
159001	34	5.55	 	;
16	8.1	5.55	 	;
160	32.9	5.55	 	;
161	55	5.55	 	;
162	55.2	5.55	 	;
163	55.2	5.55	 	;
164	57.8	5.55	 	;
165	56.7	5.55	 	;
166	57.3	5.55	 	;
168	57.1	5.55	 	;
169	56.5	5.55	 	;
17	10	5.55	 	;
170	60	5.55	 	;
171	60	5.55	 	;
171001	60	5.55	 	;
172	60	5.55	 	;
173	59.3	5.55	 	;
174	60	5.55	 	;
177	58.9	5.55	 	;
179	60	5.55	 	;
1791	60	5.55	 	;
18	8	5.55	 	;
180	95	5.55	 	;
180001	95.6	5.55	 	;
180002	95	5.55	 	;
180003	90	5.55	 	;
180004	84.2	5.55	 	;
181	93	5.55	 	;
182	95	5.55	 	;
183	87.7	5.55	 	;
184	85.7	5.55	 	;
185	95	5.55	 	;
186	95	5.55	 	;
187	95	5.55	 	;
188	94.2	5.55	 	;
189	90.5	5.55	 	;
19	3.2	5.55	 	;
190	95	5.55	 	;
190001	95	5.55	 	;
191	91.8	5.55	 	;
192	95	5.55	 	;
193	85	5.55	 	;
194	95	5.55	 	;
195	95	5.55	 	;
196	92.7	5.55	 	;
197	90	5.55	 	;
198	89.6	5.55	 	;
199	94	5.55	 	;
2	16.5	5.55	 	;
20	11	5.55	 	;
200	77.8	5.55	 	;
200001	95	5.55	 	;
201	95	5.55	 	;
202001	70	5.55	 	;
203	94.2	5.55	 	;
204	92.9	5.55	 	;
205	91.4	5.55	 	;
206	84.2	5.55	 	;
207	80.6	5.55	 	;
208	76.8	5.55	 	;
209	70	5.55	 	;
21	4.8	5.55	 	;
210	70	5.55	 	;
211	90.8	5.55	 	;
212	65	5.55	 	;
213	73.8	5.55	 	;
214	74	5.55	 	;
215	60	5.55	 	;
215001	75	5.55	 	;
216	62.7	5.55	 	;
217	62	5.55	 	;
218	57.25	5.55	 	;
219	50	5.55	 	;
22	5.2	5.55	 	;
220	52.3	5.55	 	;
221	51.7	5.55	 	;
222	52	5.55	 	;
223	50.8	5.55	 	;
223001	54.5	5.55	 	;
224	50.1	5.55	 	;
225	49.5	5.55	 	;
226	50.7	5.55	 	;
227	52.8	5.55	 	;
228	49.8	5.55	 	;
229	49.6	5.55	 	;
23	7.5	5.55	 	;
230	72.5	5.55	 	;
231	80.5	5.55	 	;
232	84.2	5.55	 	;
233	87.17	5.55	 	;
234	65	5.55	 	;
234001	65	5.55	 	;
235	71.5	5.55	 	;
235001	75.5	5.55	 	;
236	76	5.55	 	;
237	83	5.55	 	;
238	81.3	5.55	 	;
239	86.3	5.55	 	;
24	10	5.55	 	;
240	83	5.55	 	;
24001	10	5.55	 	;
241	83.3	5.55	 	;
242	87.8	5.55	 	;
243	83.6	5.55	 	;
244	78.1	5.55	 	;
245	83.5	5.55	 	;
246	85	5.55	 	;
247	90.8	5.55	 	;
248	95	5.55	 	;
249	94.1	5.55	 	;
25	14.5	5.55	 	;
250	83	5.55	 	;
250001	100	5.55	 	;
250002	88.6	5.55	 	;
250003	86	5.55	 	;
250004	85	5.55	 	;
251	82.5	5.55	 	;
252	78.8	5.55	 	;
253	78.8	5.55	 	;
254	83.9	5.55	 	;
255	82.6	5.55	 	;
256	84	5.55	 	;
256001	75	5.55	 	;
257	87	5.55	 	;
257001	71	5.55	 	;
258	83.5	5.55	 	;
258001	74.4	5.55	 	;
259	83.3	5.55	 	;
259001	71.6	5.55	 	;
26	12.3	5.55	 	;
260	81.5	5.55	 	;
260001	75.3	5.55	 	;
261	76.4	5.55	 	;
262	76	5.55	 	;
263	75.8	5.55	 	;
264	70.5	5.55	 	;
265	70	5.55	 	;
266	71.4	5.55	 	;
268	65	5.55	 	;
269	66	5.55	 	;
27	31.2	5.55	 	;
270	73.7	5.55	 	;
271	72.4	5.55	 	;
272	73.4	5.55	 	;
273	70	5.55	 	;
274	65.5	5.55	 	;
275	66	5.55	 	;
276	71	5.55	 	;
277	60	5.55	 	;
278	67.2	5.55	 	;
279	71.4	5.55	 	;
28	22.5	5.55	 	;
280	73.6	5.55	 	;
28001	32.2	5.55	 	;
281	75	5.55	 	;
282	66.8	5.55	 	;
284	70	5.55	 	;
285	71	5.55	 	;
286	72	5.55	 	;
287	73.3	5.55	 	;
288	55	5.55	 	;
289	71	5.55	 	;
29	9.2	5.55	 	;
290	68	5.55	 	;
291	49	5.55	 	;
293	47.6	5.55	 	;
294	48.5	5.55	 	;
295	51.4	5.55	 	;
296	51.7	5.55	 	;
297	52	5.55	 	;
298	55	5.55	 	;
299	60	5.55	 	;
3	23.9	5.55	 	;
30	5.65	5.55	 	;
300	75	5.55	 	;
301	75.2	5.55	 	;
301001	75	5.55	 	;
302	50	5.55	 	;
303	50	5.55	 	;
304	50.8	5.55	 	;
305	51	5.55	 	;
306	54.8	5.55	 	;
307	54.8	5.55	 	;
309	50	5.55	 	;
31	20	5.55	 	;
310	45.7	5.55	 	;
311	48.4	5.55	 	;
312	45.6	5.55	 	;
313	45	5.55	 	;
314	40	5.55	 	;
315	45	5.55	 	;
316	46	5.55	 	;
317	40	5.55	 	;
318	35	5.55	 	;
319	46.9	5.55	 	;
32	7.1	5.55	 	;
320	47.5	5.55	 	;
321	50	5.55	 	;
322	47.4	5.55	 	;
323	44	5.55	 	;
324	53.4	5.55	 	;
325	75	5.55	 	;
326	75.7	5.55	 	;
327	76.5	5.55	 	;
328	77	5.55	 	;
329	77.7	5.55	 	;
33	4.6	5.55	 	;
330	75.3	5.55	 	;
331	75.7	5.55	 	;
332	75	5.55	 	;
333	80	5.55	 	;
334	80.2	5.55	 	;
335	80.4	5.55	 	;
336	80	5.55	 	;
337	84.36	5.55	 	;
338	81.1	5.55	 	;
339	81.6	5.55	 	;
34	4.4	5.55	 	;
340	83.54	5.55	 	;
341	83.6	5.55	 	;
342	82.8	5.55	 	;
343	82.2	5.55	 	;
344	80.2	5.55	 	;
345	84.4	5.55	 	;
346	84.1	5.55	 	;
347	83.1	5.55	 	;
348	82.9	5.55	 	;
349	82.76	5.55	 	;
35	30	5.55	 	;
350	84.2	5.55	 	;
350001	83.7	5.55	 	;
351	83.6	5.55	 	;
352	82.1	5.55	 	;
353	81.8	5.55	 	;
354	81.5	5.55	 	;
355	81.1	5.55	 	;
356	82.3	5.55	 	;
357	82.1	5.55	 	;
358	82	5.55	 	;
359	80.7	5.55	 	;
36	13	5.55	 	;
360	80.6	5.55	 	;
360001	80.5	5.55	 	;
361	79.5	5.55	 	;
362	80	5.55	 	;
363	80.5	5.55	 	;
364	80	5.55	 	;
365	79.7	5.55	 	;
366	79.4	5.55	 	;
367	59.8	5.55	 	;
368	58	5.55	 	;
369	59.2	5.55	 	;
37	6	5.55	 	;
370	59.5	5.55	 	;
371	59.2	5.55	 	;
372	57.2	5.55	 	;
373	68	5.55	 	;
374	69.5	5.55	 	;
376	56.2	5.55	 	;
377	52.7	5.55	 	;
378	56.6	5.55	 	;
379	53	5.55	 	;
380	50.5	5.55	 	;
381	45	5.55	 	;
382	45	5.55	 	;
383	52.7	5.55	 	;
384	56	5.55	 	;
385	54.7	5.55	 	;
387	54.8	5.55	 	;
388	54.8	5.55	 	;
389	55.5	5.55	 	;
39	10	5.55	 	;
390	52.5	5.55	 	;
391	53	5.55	 	;
392	52	5.55	 	;
393	50	5.55	 	;
394	56.4	5.55	 	;
395	55.6	5.55	 	;
396	40.4	5.55	 	;
396001	80.4	5.55	 	;
397	80.5	5.55	 	;
398	80.5	5.55	 	;
399	81.7	5.55	 	;
4	14.2	5.55	 	;
40	6.3	5.55	 	;
400	81.7	5.55	 	;
401	81.7	5.55	 	;
402	80.8	5.55	 	;
403	80.9	5.55	 	;
404	83.74	5.55	 	;
405	84.3	5.55	 	;
406	84.4	5.55	 	;
407	84.5	5.55	 	;
407001	85	5.55	 	;
408	86.7	5.55	 	;
409	87	5.55	 	;
41	31	5.55	 	;
410	89.7	5.55	 	;
411	89.7	5.55	 	;
412	90	5.55	 	;
413	100	5.55	 	;
414	102	5.55	 	;
415	103	5.55	 	;
416	103	5.55	 	;
417	104	5.55	 	;
418	103	5.55	 	;
419	101.1	5.55	 	;
42	15	5.55	 	;
420	99.8	5.55	 	;
421	98.1	5.55	 	;
422	103	5.55	 	;
45	5.9	5.55	 	;
45001	32	5.55	 	;
46	3.5	5.55	 	;
46001	33	5.55	 	;
47	13.1	5.55	 	;
48	7.1	5.55	 	;
49	1.6	5.55	 	;
5	12.5	5.55	 	;
50	20	5.55	 	;
51	4.4	5.55	 	;
52	31	5.55	 	;
53	14.5	5.55	 	;
54	4.1	5.55	 	;
55	30	5.55	 	;
56	12.9	5.55	 	;
57	4.8	5.55	 	;
58	3	5.55	 	;
59	21	5.55	 	;
6	18.4	5.55	 	;
60	11	5.55	 	;
601	56	0	 	;
61	5	5.55	 	;
62	3.5	5.55	 	;
63	9	5.55	 	;
64	4.5	5.55	 	;
65	3.3	5.55	 	;
66	1.2	5.55	 	;
67	12.3	5.55	 	;
68	9.3	5.55	 	;
69	8.16	5.55	 	;
7	10	5.55	 	;
70	8.8	5.55	 	;
71	8.1	5.55	 	;
71001	8.1	5.55	 	;
72	7.4	5.55	 	;
73	32.5	5.55	 	;
74	40	5.55	 	;
75	47	5.55	 	;
76	47.4	5.55	 	;
77	45	5.55	 	;
78	44.8	5.55	 	;
79	45.8	5.55	 	;
8	8.5	5.55	 	;
80	46.6	5.55	 	;
81	44.4	5.55	 	;
82	46.9	5.55	 	;
83	40.2	5.55	 	;
84	40	5.55	 	;
85	50	5.55	 	;
86	41.4	5.55	 	;
87	40.3	5.55	 	;
89	47	5.55	 	;
9	1.7	5.55	 	;
90	45	5.55	 	;
91	42.5	5.55	 	;
92	40	5.55	 	;
93	50	5.55	 	;
94	51.7	5.55	 	;
95	51.4	5.55	 	;
96	52.8	5.55	 	;
97	51.4	5.55	 	;
98	46	5.55	 	;
99	45	5.55	 	;

[RESERVOIRS]
;ID	Head	Pattern
38	117	 	;
43	127	 	;
44	122	 	;
88	112	 	;

[TANKS]
;ID	Elevation	InitLevel	MinLevel	MaxLevel	Diameter	MinVol	VolCurve

[PIPES]
;ID	Node1	Node2	Length	Diameter	Roughness	MinorLoss	Status
1	126	125001	65	113	0.0025	0	Open	;
10	161	162	68	226.2	0.0025	0	Open	;
101	156	157	191	113	0.0025	0	Open	;
102	157	158	129	113	0.0025	0	Open	;
103	156	155	152	113	0.0025	0	Open	;
104	155	154	115	113	0.0025	0	Open	;
105	155	153	444	113	0.0025	0	Open	;
106	234001	235	500	113	0.0025	0	Open	;
107	77	81	334	113	0.0025	0	Open	;
108	55	59	580	162.8	0.0025	0	Open	;
11	162	163	164	226.2	0.0025	0	Open	;
110	59	60	350	113	0.0025	0	Open	;
112	60	61	209	113	0.0025	0	Open	;
113	60	62	212	113	0.0025	0	Open	;
114	141	147	455	226.2	0.0025	0	Open	;
115	147	148	250	226.2	0.0025	0	Open	;
116	148	150	168	144.6	0.0025	0	Open	;
118	148	149	145	113	0.0025	0	Open	;
119	59	63	314	113	0.0025	0	Open	;
12	163	164	164	113	0.0025	0	Open	;
120	63	67	419	113	0.0025	0	Open	;
121	63	64	172	113	0.0025	0	Open	;
122	64	65	110	113	0.0025	0	Open	;
123	65	66	250	113	0.0025	0	Open	;
124	260001	262	345	113	0.0025	0	Open	;
125	67	68	148	113	0.0025	0	Open	;
126	68	69	123	113	0.0025	0	Open	;
127	68	70	139	113	0.0025	0	Open	;
128	70	71	210	126.6	0.0025	0	Open	;
13	163	165	65	162.8	0.0025	0	Open	;
131	152	153	347	113	0.0025	0	Open	;
132	55	56	159	113	0.0025	0	Open	;
133	56	57	144	113	0.0025	0	Open	;
134	57	58	148	113	0.0025	0	Open	;
136	52	53	161	113	0.0025	0	Open	;
137	53	54	267	113	0.0025	0	Open	;
138	55	52	320	162.8	0.0025	0	Open	;
139	52	46001	444	226.2	0.0025	0	Open	;
140	46001	50	184	113	0.0025	0	Open	;
141	50	51	322	113	0.0025	0	Open	;
142	46001	47	228	113	0.0025	0	Open	;
143	47	48	129	113	0.0025	0	Open	;
144	48	49	254	113	0.0025	0	Open	;
145	301001	366	52	144.6	0.0025	0	Open	;
146	41	42	224	113	0.0025	0	Open	;
147	42	45	202	113	0.0025	0	Open	;
148	45	46	162	113	0.0025	0	Open	;
149	45001	41	435	285	0.0025	0	Open	;
15	165	166	98	113	0.0025	0	Open	;
150	41	35	488	285	0.0025	0	Open	;
151	35	36	179	113	0.0025	0	Open	;
152	36	39	137	113	0.0025	0	Open	;
153	39	40	160	113	0.0025	0	Open	;
154	36	37	168	113	0.0025	0	Open	;
155	35	31	350	285	0.0025	0	Open	;
157	31	32	246	113	0.0025	0	Open	;
159	32	33	100	113	0.0025	0	Open	;
16	166	168	145	113	0.0025	0	Open	;
160	32	34	149	113	0.0025	0	Open	;
161	235	235001	218	113	0.0025	0	Open	;
164	91	90	750	144.6	0.0025	0	Open	;
165	250001	412	611	581.8	0.0025	0	Open	;
166	13	385	752	285	0.0025	0	Open	;
167	90	89	250	452.2	0.0025	0	Open	;
168	23	24	103.6	113	0.0025	0	Open	;
169	31	28	250	361.8	0.0025	0	Open	;
17	165	170	96	162.8	0.0025	0	Open	;
170	28001	28	200	361.8	0.0025	0	Open	;
171	28	29	273	113	0.0025	0	Open	;
172	29	30	205	113	0.0025	0	Open	;
173	90	28001	200	285	0.0025	0	Open	;
174	28001	27	312	126.6	0.0025	0	Open	;
175	27	26	308	144.6	0.0025	0	Open	;
176	26	23	40	144.6	0.0025	0	Open	;
177	23	22	671	162.8	0.0025	0	Open	;
179	220	215001	820	162.8	0.0025	0	Open	;
18	170	171001	181	162.8	0.0025	0	Open	;
181	213	234	700	113	0.0025	0	Open	;
182	24	24001	219	113	0.0025	0	Open	;
183	234001	238	400	180.8	0.0025	0	Open	;
184	288	291	603	162.8	0.0025	0	Open	;
185	365	301001	116	180.8	0.0025	0	Open	;
186	24001	25	214	113	0.0025	0	Open	;
187	319	322	477	113	0.0025	0	Open	;
188	250002	44	800	452.2	0.0025	0	Open	;
19	171001	171	92	113	0.0025	0	Open	;
190	322	324	363	113	0.0025	0	Open	;
191	81	78	73	113	0.0025	0	Open	;
192	78	79	114	113	0.0025	0	Open	;
193	79	80	93	113	0.0025	0	Open	;
194	43	417	354	452.2	0.0025	0	Open	;
196	325	330	380	285	0.0025	0	Open	;
197	46001	45001	80	162.8	0.0025	0	Open	;
198	84	85	161	113	0.0025	0	Open	;
199	115	120	221	144.6	0.0025	0	Open	;
2	125001	125	260	113	0.0025	0	Open	;
20	171	172	100	113	0.0025	0	Open	;
200	120	121	150	226.2	0.0025	0	Open	;
201	121	122	254	226.2	0.0025	0	Open	;
202	122	123	160	226.2	0.0025	0	Open	;
204	77	75	400	452.2	0.0025	0	Open	;
206	238	240	44	113	0.0025	0	Open	;
207	192	190001	398	452.2	0.0025	0	Open	;
208	77	76	66	113	0.0025	0	Open	;
209	123	82	100	226.2	0.0025	0	Open	;
21	171001	173	177	144.6	0.0025	0	Open	;
212	73	74	127	113	0.0025	0	Open	;
213	336	337	206	361.8	0.0025	0	Open	;
214	334	345	616	285	0.0025	0	Open	;
216	239	189	300	226.2	0.0025	0	Open	;
218	135	141	177	226.2	0.0025	0	Open	;
219	75	73	175	113	0.0025	0	Open	;
22	173	179	159	113	0.0025	0	Open	;
220	219	220	105	113	0.0025	0	Open	;
221	150	71	500	162.8	0.0025	0	Open	;
222	83	84	169	113	0.0025	0	Open	;
223	43	422	345	452.2	0.0025	0	Open	;
224	220	221	187	144.6	0.0025	0	Open	;
226	221	222	86	113	0.0025	0	Open	;
227	222	223	126	113	0.0025	0	Open	;
228	221	223001	250	113	0.0025	0	Open	;
229	223001	224	116	113	0.0025	0	Open	;
23	173	174	155	113	0.0025	0	Open	;
230	224	225	269	113	0.0025	0	Open	;
231	225	226	42	113	0.0025	0	Open	;
232	370	371	100	180.8	0.0025	0	Open	;
234	256001	258001	249	285	0.0025	0	Open	;
235	258001	257001	184	285	0.0025	0	Open	;
236	257001	264	141	285	0.0025	0	Open	;
237	264	260001	75	285	0.0025	0	Open	;
238	265	268	227	113	0.0025	0	Open	;
239	268	274	397	180.8	0.0025	0	Open	;
24	106	82	569	452.2	0.0025	0	Open	;
240	274	277	162	144.6	0.0025	0	Open	;
243	83	86	135	452.2	0.0025	0	Open	;
244	215	214	329	113	0.0025	0	Open	;
245	214	216	145	113	0.0025	0	Open	;
246	216	217	56	113	0.0025	0	Open	;
247	216	218	171	113	0.0025	0	Open	;
248	256001	254	500	361.8	0.0025	0	Open	;
249	214	203	236	113	0.0025	0	Open	;
251	215001	202001	264	581.8	0.0025	0	Open	;
254	203	204	108	180.8	0.0025	0	Open	;
255	204	205	125	180.8	0.0025	0	Open	;
256	204	211	190	113	0.0025	0	Open	;
257	211	212	269	113	0.0025	0	Open	;
258	205	206	227	180.8	0.0025	0	Open	;
259	206	207	110	180.8	0.0025	0	Open	;
26	179	1791	168	113	0.0025	0	Open	;
260	207	208	110	162.8	0.0025	0	Open	;
261	208	213	140	113	0.0025	0	Open	;
262	208	209	284	113	0.0025	0	Open	;
263	209	210	298	113	0.0025	0	Open	;
265	203	201	200	285	0.0025	0	Open	;
266	405	404	177	180.8	0.0025	0	Open	;
267	86	87	213	452.2	0.0025	0	Open	;
268	201	200001	150	285	0.0025	0	Open	;
269	200001	199	193	285	0.0025	0	Open	;
27	179	177	103	113	0.0025	0	Open	;
271	234	230	73	162.8	0.0025	0	Open	;
272	230	231	156	144.6	0.0025	0	Open	;
273	231	232	132	126.6	0.0025	0	Open	;
274	232	233	106	113	0.0025	0	Open	;
275	199	196	160	113	0.0025	0	Open	;
276	196	197	225	113	0.0025	0	Open	;
277	197	198	93	113	0.0025	0	Open	;
278	199	192	325	361.8	0.0025	0	Open	;
279	192	194	106	113	0.0025	0	Open	;
28	168	169	113	113	0.0025	0	Open	;
280	194	195	194	113	0.0025	0	Open	;
282	192	193	103	113	0.0025	0	Open	;
284	234	234001	149	180.8	0.0025	0	Open	;
288	236	237	138	113	0.0025	0	Open	;
289	237	238	146	113	0.0025	0	Open	;
290	250004	413	750	113	0.0025	0	Open	;
291	238	239	147	226.2	0.0025	0	Open	;
292	190001	190	131	452.2	0.0025	0	Open	;
294	187	186	38	113	0.0025	0	Open	;
295	186	185	78	113	0.0025	0	Open	;
296	187	188	287	285	0.0025	0	Open	;
297	188	189	253	226.2	0.0025	0	Open	;
298	180004	266	816	113	0.0025	0	Open	;
299	235001	241	215	113	0.0025	0	Open	;
3	125	124	164	113	0.0025	0	Open	;
30	124	127	850	361.8	0.0025	0	Open	;
300	241	242	170	113	0.0025	0	Open	;
301	241	243	135	144.6	0.0025	0	Open	;
302	243	244	145	162.8	0.0025	0	Open	;
304	244	245	254	180.8	0.0025	0	Open	;
306	182	183	103	113	0.0025	0	Open	;
307	183	184	85	113	0.0025	0	Open	;
308	187	182	600	452.2	0.0025	0	Open	;
311	182	249	300	581.8	0.0025	0	Open	;
312	249	248	100	226.2	0.0025	0	Open	;
313	248	247	306	226.2	0.0025	0	Open	;
315	247	246	256	226.2	0.0025	0	Open	;
316	246	245	239	180.8	0.0025	0	Open	;
317	180001	249	450	581.8	0.0025	0	Open	;
318	180001	181	130	113	0.0025	0	Open	;
32	128	129	149	113	0.0025	0	Open	;
321	71	71001	23	113	0.0025	0	Open	;
322	187	190	268	361.8	0.0025	0	Open	;
323	190	191	70	113	0.0025	0	Open	;
324	180004	180003	471	113	0.0025	0	Open	;
325	180002	180003	176	113	0.0025	0	Open	;
328	180	180001	190	581.8	0.0025	0	Open	;
329	400	399	70	144.6	0.0025	0	Open	;
33	129	130	175	113	0.0025	0	Open	;
330	404	399	350	180.8	0.0025	0	Open	;
331	258001	259001	320	113	0.0025	0	Open	;
332	199	200	158	113	0.0025	0	Open	;
333	202001	284	206	113	0.0025	0	Open	;
334	287	286	83	113	0.0025	0	Open	;
335	286	285	165	113	0.0025	0	Open	;
336	285	284	69	113	0.0025	0	Open	;
337	399	396001	350	144.6	0.0025	0	Open	;
338	202001	38	200	581.8	0.0025	0	Open	;
34	127001	131001	500	361.8	0.0025	0	Open	;
342	274	275	90	113	0.0025	0	Open	;
343	275	276	137	113	0.0025	0	Open	;
344	89	87	474	452.2	0.0025	0	Open	;
345	229	75	280	452.2	0.0025	0	Open	;
346	268	269	58	113	0.0025	0	Open	;
348	271	270	107	113	0.0025	0	Open	;
349	202001	82	1800	581.8	0.0025	0	Open	;
35	131	132	134	113	0.0025	0	Open	;
350	318	317	118	113	0.0025	0	Open	;
351	317	316	177	113	0.0025	0	Open	;
352	316	315	153	113	0.0025	0	Open	;
353	315	313	133	113	0.0025	0	Open	;
354	313	314	170	113	0.0025	0	Open	;
355	313	312	210	162.8	0.0025	0	Open	;
356	312	310	165	162.8	0.0025	0	Open	;
357	310	311	115	113	0.0025	0	Open	;
358	310	309	163	180.8	0.0025	0	Open	;
359	309	297	100	226.2	0.0025	0	Open	;
361	297	298	110	113	0.0025	0	Open	;
362	298	299	182	113	0.0025	0	Open	;
363	297	296	93	285	0.0025	0	Open	;
364	296	294	151	285	0.0025	0	Open	;
365	294	293	85	285	0.0025	0	Open	;
366	293	229	300	285	0.0025	0	Open	;
367	293	291	250	180.8	0.0025	0	Open	;
368	71001	72	121	113	0.0025	0	Open	;
369	296	295	132	113	0.0025	0	Open	;
370	127	127001	100	361.8	0.0025	0	Open	;
373	288	289	211	113	0.0025	0	Open	;
374	289	290	69	113	0.0025	0	Open	;
375	288	282	400	144.6	0.0025	0	Open	;
376	282	277	259	113	0.0025	0	Open	;
379	277	278	155	144.6	0.0025	0	Open	;
38	106	105	66	285	0.0025	0	Open	;
380	278	279	187	144.6	0.0025	0	Open	;
381	279	280	222	126.6	0.0025	0	Open	;
382	280	281	82	113	0.0025	0	Open	;
383	127001	128	102	113	0.0025	0	Open	;
385	271	272	220	113	0.0025	0	Open	;
386	271	273	300	113	0.0025	0	Open	;
39	105	102	78	285	0.0025	0	Open	;
390	82	228	74	113	0.0025	0	Open	;
392	227	229	150	581.8	0.0025	0	Open	;
393	227	215001	317	581.8	0.0025	0	Open	;
394	268	260001	270	285	0.0025	0	Open	;
397	262	261	78	113	0.0025	0	Open	;
398	301001	301	79	113	0.0025	0	Open	;
399	303	304	82	113	0.0025	0	Open	;
4	124	106	250	361.8	0.0025	0	Open	;
40	131001	131	164	113	0.0025	0	Open	;
400	319	315	262	113	0.0025	0	Open	;
401	262	263	90	113	0.0025	0	Open	;
402	304	305	157	113	0.0025	0	Open	;
404	255	258	123	113	0.0025	0	Open	;
405	258	259	86	113	0.0025	0	Open	;
406	259	260	81	113	0.0025	0	Open	;
407	255	256	51	113	0.0025	0	Open	;
408	256	257	212	113	0.0025	0	Open	;
409	255	254	400	162.8	0.0025	0	Open	;
41	131	133	137	113	0.0025	0	Open	;
414	421	180002	218	113	0.0025	0	Open	;
415	420	421	109	113	0.0025	0	Open	;
416	419	420	55	144.6	0.0025	0	Open	;
417	418	419	214	162.8	0.0025	0	Open	;
418	416	418	145	226.2	0.0025	0	Open	;
419	417	416	329	581.8	0.0025	0	Open	;
42	133	134	223	113	0.0025	0	Open	;
421	416	415	372	581.8	0.0025	0	Open	;
422	415	250001	368	581.8	0.0025	0	Open	;
423	415	414	96	126.6	0.0025	0	Open	;
424	414	413	79	113	0.0025	0	Open	;
428	22	21	181	144.6	0.0025	0	Open	;
429	21	19	320	113	0.0025	0	Open	;
43	131001	135	394	285	0.0025	0	Open	;
430	19	18	236	113	0.0025	0	Open	;
433	422	180	381	581.8	0.0025	0	Open	;
434	319	320	63	113	0.0025	0	Open	;
435	21	20	164	113	0.0025	0	Open	;
438	297	302	280	126.6	0.0025	0	Open	;
439	302	303	103	113	0.0025	0	Open	;
44	135	136	191	113	0.0025	0	Open	;
441	305	306	150	113	0.0025	0	Open	;
442	306	307	46	113	0.0025	0	Open	;
443	320	321	314	113	0.0025	0	Open	;
446	322	323	264	113	0.0025	0	Open	;
450	301	300	229	113	0.0025	0	Open	;
457	324	368	265	226.2	0.0025	0	Open	;
458	368	367	51	113	0.0025	0	Open	;
459	367	369	87	113	0.0025	0	Open	;
46	136	137	440	113	0.0025	0	Open	;
460	365	325	363	226.2	0.0025	0	Open	;
464	365	362	163	226.2	0.0025	0	Open	;
465	362	361	136	180.8	0.0025	0	Open	;
467	361	360001	200	162.8	0.0025	0	Open	;
468	360001	360	59	113	0.0025	0	Open	;
469	360	359	59	113	0.0025	0	Open	;
47	136	138	459	113	0.0025	0	Open	;
471	366	364	81	113	0.0025	0	Open	;
472	364	363	142	113	0.0025	0	Open	;
473	325	327	248	126.6	0.0025	0	Open	;
474	327	326	110	113	0.0025	0	Open	;
476	327	328	66	113	0.0025	0	Open	;
477	328	329	99	113	0.0025	0	Open	;
479	330	334	415	285	0.0025	0	Open	;
480	324	331	1450	285	0.0025	0	Open	;
481	331	333	350	361.8	0.0025	0	Open	;
482	333	336	400	361.8	0.0025	0	Open	;
485	331	332	68	113	0.0025	0	Open	;
486	254	250	459	361.8	0.0025	0	Open	;
487	250	341	310	452.2	0.0025	0	Open	;
489	341	340	169	361.8	0.0025	0	Open	;
49	102	100	197	285	0.0025	0	Open	;
490	340	338	176	361.8	0.0025	0	Open	;
492	338	337	392	361.8	0.0025	0	Open	;
496	338	339	246	113	0.0025	0	Open	;
497	341	342	87	113	0.0025	0	Open	;
498	342	343	64	113	0.0025	0	Open	;
499	343	344	233	113	0.0025	0	Open	;
5	266	38	200	113	0.0025	0	Open	;
50	136	139	184	113	0.0025	0	Open	;
500	250	251	90	113	0.0025	0	Open	;
501	251	252	174	113	0.0025	0	Open	;
503	252	253	51	113	0.0025	0	Open	;
506	250002	250003	108	581.8	0.0025	0	Open	;
508	412	411	190	581.8	0.0025	0	Open	;
509	411	410	293	581.8	0.0025	0	Open	;
51	385	88	2500	361.8	0.0025	0	Open	;
510	410	409	168	581.8	0.0025	0	Open	;
511	409	408	317	452.2	0.0025	0	Open	;
512	408	407001	342	452.2	0.0025	0	Open	;
513	407001	406	415	226.2	0.0025	0	Open	;
514	407001	350	142	361.8	0.0025	0	Open	;
515	407	350	183	113	0.0025	0	Open	;
517	350	350001	131	144.6	0.0025	0	Open	;
519	350001	351	75	113	0.0025	0	Open	;
52	100	101	197	113	0.0025	0	Open	;
520	350001	352	362	126.6	0.0025	0	Open	;
521	350001	356	392	113	0.0025	0	Open	;
522	350	345	236	285	0.0025	0	Open	;
523	345	346	168	113	0.0025	0	Open	;
524	346	347	263	113	0.0025	0	Open	;
525	347	348	84	113	0.0025	0	Open	;
526	348	349	50	113	0.0025	0	Open	;
53	102	103	177	113	0.0025	0	Open	;
530	334	335	182	113	0.0025	0	Open	;
532	406	405	158	180.8	0.0025	0	Open	;
535	352	353	102	113	0.0025	0	Open	;
536	353	354	69	113	0.0025	0	Open	;
537	354	355	121	113	0.0025	0	Open	;
538	356	357	81	113	0.0025	0	Open	;
539	357	358	96	113	0.0025	0	Open	;
540	368	370	87	180.8	0.0025	0	Open	;
542	371	372	195	180.8	0.0025	0	Open	;
543	372	373	209	113	0.0025	0	Open	;
544	373	374	67	113	0.0025	0	Open	;
545	372	378	55	113	0.0025	0	Open	;
546	378	379	167	113	0.0025	0	Open	;
547	379	380	81	113	0.0025	0	Open	;
548	380	381	225	113	0.0025	0	Open	;
549	381	382	44	113	0.0025	0	Open	;
550	372	376	90	113	0.0025	0	Open	;
552	376	384	286	113	0.0025	0	Open	;
554	384	383	146	113	0.0025	0	Open	;
555	378	377	170	113	0.0025	0	Open	;
557	396001	397	222	113	0.0025	0	Open	;
558	397	398	31	113	0.0025	0	Open	;
56	141	143	300	113	0.0025	0	Open	;
563	400	401	69	126.6	0.0025	0	Open	;
564	401	402	297	113	0.0025	0	Open	;
565	402	403	83	113	0.0025	0	Open	;
567	18	11	77	113	0.0025	0	Open	;
568	11	10	130	113	0.0025	0	Open	;
57	143	144	116	113	0.0025	0	Open	;
571	9	8	257	113	0.0025	0	Open	;
575	18	15	720	113	0.0025	0	Open	;
576	15	13	351	113	0.0025	0	Open	;
578	12	14	188	144.6	0.0025	0	Open	;
579	14	6	159	144.6	0.0025	0	Open	;
58	144	145	198	113	0.0025	0	Open	;
580	6	5	189	144.6	0.0025	0	Open	;
581	5	8	83	113	0.0025	0	Open	;
588	13	12	200	162.8	0.0025	0	Open	;
589	15	16	94	113	0.0025	0	Open	;
59	141	142	510	113	0.0025	0	Open	;
590	15	17	128	113	0.0025	0	Open	;
593	250	250003	225	581.8	0.0025	0	Open	;
600	4	8	101	113	0.0025	0	Open	;
601	8	7	101	113	0.0025	0	Open	;
605	601	384	67	126.6	0.0025	0	Open	;
606	601	385	170	113	0.0025	0	Open	;
607	385	387	176	162.8	0.0025	0	Open	;
608	387	388	105	180.8	0.0025	0	Open	;
609	388	389	136	180.8	0.0025	0	Open	;
61	141	140001	127	113	0.0025	0	Open	;
610	389	390	128	144.6	0.0025	0	Open	;
611	390	391	40	126.6	0.0025	0	Open	;
612	391	392	65	144.6	0.0025	0	Open	;
613	392	393	83	126.6	0.0025	0	Open	;
614	393	394	257	113	0.0025	0	Open	;
615	394	395	85	113	0.0025	0	Open	;
616	395	396	151	113	0.0025	0	Open	;
617	4	2	326	113	0.0025	0	Open	;
618	2	3	135	113	0.0025	0	Open	;
62	140001	151	189	144.6	0.0025	0	Open	;
620	2	1	222	113	0.0025	0	Open	;
63	151	152	95	113	0.0025	0	Open	;
64	269	271	209	113	0.0025	0	Open	;
65	124	107	250	113	0.0025	0	Open	;
67	107	108	375	113	0.0025	0	Open	;
68	108	109	100	126.6	0.0025	0	Open	;
69	109	110	231	126.6	0.0025	0	Open	;
70	110	111	61	113	0.0025	0	Open	;
71	110	112	282	113	0.0025	0	Open	;
73	112	113	88	113	0.0025	0	Open	;
74	113	114	134	113	0.0025	0	Open	;
75	115	108	421	144.6	0.0025	0	Open	;
77	115	116	40	113	0.0025	0	Open	;
78	116	117	189	113	0.0025	0	Open	;
8	106	161	100	226.2	0.0025	0	Open	;
81	119	118	225	113	0.0025	0	Open	;
82	117	119	201	113	0.0025	0	Open	;
83	103	104	85	113	0.0025	0	Open	;
84	100	96	222	226.2	0.0025	0	Open	;
86	96	97	288	113	0.0025	0	Open	;
87	97	98	130	113	0.0025	0	Open	;
88	98	99	127	113	0.0025	0	Open	;
89	96	93	96	180.8	0.0025	0	Open	;
90	83	77	346	452.2	0.0025	0	Open	;
91	93	94	110	113	0.0025	0	Open	;
92	94	95	205	113	0.0025	0	Open	;
94	93	92	176	226.2	0.0025	0	Open	;
95	92	91	300	180.8	0.0025	0	Open	;
96	91	160	500	180.8	0.0025	0	Open	;
97	160	159001	119	180.8	0.0025	0	Open	;
98	159001	159	228	180.8	0.0025	0	Open	;
99	159	156	295	162.8	0.0025	0	Open	;

[PUMPS]
;ID	Node1	Node2	Parameters

[VALVES]
;ID	Node1	Node2	Diameter	Type	Setting	MinorLoss

[TAGS]

[DEMANDS]
;Junction	Demand	Pattern	Category

[STATUS]
;ID	Status/Setting

[PATTERNS]
;ID	M1	M2	M3	M4	M5	M6

[CURVES]
;ID	X-Value	Y-Value

[CONTROLS]

[RULES]

[ENERGY]
Global Efficiency	75
Global Price	0
Demand Charge	0

[EMITTERS]
;Junction	Coefficient
1	0	;
10	0	;
100	0	;
101	0	;
102	0	;
103	0	;
104	0	;
105	0	;
106	0	;
107	0	;
108	0	;
109	0	;
11	0	;
110	0	;
111	0	;
112	0	;
113	0	;
114	0	;
115	0	;
116	0	;
117	0	;
118	0	;
119	0	;
12	0	;
120	0	;
121	0	;
122	0	;
123	0	;
124	0	;
125	0	;
125001	0	;
126	0	;
127	0	;
127001	0	;
128	0	;
129	0	;
13	0	;
130	0	;
131	0	;
131001	0	;
132	0	;
133	0	;
134	0	;
135	0	;
136	0	;
137	0	;
138	0	;
139	0	;
14	0	;
140001	0	;
141	0	;
142	0	;
143	0	;
144	0	;
145	0	;
147	0	;
148	0	;
149	0	;
15	0	;
150	0	;
151	0	;
152	0	;
153	0	;
154	0	;
155	0	;
156	0	;
157	0	;
158	0	;
159	0	;
159001	0	;
16	0	;
160	0	;
161	0	;
162	0	;
163	0	;
164	0	;
165	0	;
166	0	;
168	0	;
169	0	;
17	0	;
170	0	;
171	0	;
171001	0	;
172	0	;
173	0	;
174	0	;
177	0	;
179	0	;
1791	0	;
18	0	;
180	0	;
180001	0	;
180002	0	;
180003	0	;
180004	0	;
181	0	;
182	0	;
183	0	;
184	0	;
185	0	;
186	0	;
187	0	;
188	0	;
189	0	;
19	0	;
190	0	;
190001	0	;
191	0	;
192	0	;
193	0	;
194	0	;
195	0	;
196	0	;
197	0	;
198	0	;
199	0	;
2	0	;
20	0	;
200	0	;
200001	0	;
201	0	;
202001	0	;
203	0	;
204	0	;
205	0	;
206	0	;
207	0	;
208	0	;
209	0	;
21	0	;
210	0	;
211	0	;
212	0	;
213	0	;
214	0	;
215	0	;
215001	0	;
216	0	;
217	0	;
218	0	;
219	0	;
22	0	;
220	0	;
221	0	;
222	0	;
223	0	;
223001	0	;
224	0	;
225	0	;
226	0	;
227	0	;
228	0	;
229	0	;
23	0	;
230	0	;
231	0	;
232	0	;
233	0	;
234	0	;
234001	0	;
235	0	;
235001	0	;
236	0	;
237	0	;
238	0	;
239	0	;
24	0	;
240	0	;
24001	0	;
241	0	;
242	0	;
243	0	;
244	0	;
245	0	;
246	0	;
247	0	;
248	0	;
249	0	;
25	0	;
250	0	;
250001	0	;
250002	0	;
250003	0	;
250004	0	;
251	0	;
252	0	;
253	0	;
254	0	;
255	0	;
256	0	;
256001	0	;
257	0	;
257001	0	;
258	0	;
258001	0	;
259	0	;
259001	0	;
26	0	;
260	0	;
260001	0	;
261	0	;
262	0	;
263	0	;
264	0	;
265	0	;
266	0	;
268	0	;
269	0	;
27	0	;
270	0	;
271	0	;
272	0	;
273	0	;
274	0	;
275	0	;
276	0	;
277	0	;
278	0	;
279	0	;
28	0	;
280	0	;
28001	0	;
281	0	;
282	0	;
284	0	;
285	0	;
286	0	;
287	0	;
288	0	;
289	0	;
29	0	;
290	0	;
291	0	;
293	0	;
294	0	;
295	0	;
296	0	;
297	0	;
298	0	;
299	0	;
3	0	;
30	0	;
300	0	;
301	0	;
301001	0	;
302	0	;
303	0	;
304	0	;
305	0	;
306	0	;
307	0	;
309	0	;
31	0	;
310	0	;
311	0	;
312	0	;
313	0	;
314	0	;
315	0	;
316	0	;
317	0	;
318	0	;
319	0	;
32	0	;
320	0	;
321	0	;
322	0	;
323	0	;
324	0	;
325	0	;
326	0	;
327	0	;
328	0	;
329	0	;
33	0	;
330	0	;
331	0	;
332	0	;
333	0	;
334	0	;
335	0	;
336	0	;
337	0	;
338	0	;
339	0	;
34	0	;
340	0	;
341	0	;
342	0	;
343	0	;
344	0	;
345	0	;
346	0	;
347	0	;
348	0	;
349	0	;
35	0	;
350	0	;
350001	0	;
351	0	;
352	0	;
353	0	;
354	0	;
355	0	;
356	0	;
357	0	;
358	0	;
359	0	;
36	0	;
360	0	;
360001	0	;
361	0	;
362	0	;
363	0	;
364	0	;
365	0	;
366	0	;
367	0	;
368	0	;
369	0	;
37	0	;
370	0	;
371	0	;
372	0	;
373	0	;
374	0	;
376	0	;
377	0	;
378	0	;
379	0	;
380	0	;
381	0	;
382	0	;
383	0	;
384	0	;
385	0	;
387	0	;
388	0	;
389	0	;
39	0	;
390	0	;
391	0	;
392	0	;
393	0	;
394	0	;
395	0	;
396	0	;
396001	0	;
397	0	;
398	0	;
399	0	;
4	0	;
40	0	;
400	0	;
401	0	;
402	0	;
403	0	;
404	0	;
405	0	;
406	0	;
407	0	;
407001	0	;
408	0	;
409	0	;
41	0	;
410	0	;
411	0	;
412	0	;
413	0	;
414	0	;
415	0	;
416	0	;
417	0	;
418	0	;
419	0	;
42	0	;
420	0	;
421	0	;
422	0	;
45	0	;
45001	0	;
46	0	;
46001	0	;
47	0	;
48	0	;
49	0	;
5	0	;
50	0	;
51	0	;
52	0	;
53	0	;
54	0	;
55	0	;
56	0	;
57	0	;
58	0	;
59	0	;
6	0	;
60	0	;
601	0	;
61	0	;
62	0	;
63	0	;
64	0	;
65	0	;
66	0	;
67	0	;
68	0	;
69	0	;
7	0	;
70	0	;
71	0	;
71001	0	;
72	0	;
73	0	;
74	0	;
75	0	;
76	0	;
77	0	;
78	0	;
79	0	;
8	0	;
80	0	;
81	0	;
82	0	;
83	0	;
84	0	;
85	0	;
86	0	;
87	0	;
89	0	;
9	0	;
90	0	;
91	0	;
92	0	;
93	0	;
94	0	;
95	0	;
96	0	;
97	0	;
98	0	;
99	0	;

[QUALITY]
;Node	InitQual

[SOURCES]
;Node	Type	Quality	Pattern

[REACTIONS]
Order Bulk	1
Order Tank	1
Order Wall	1
Global Bulk	0
Global Wall	0
Limiting Potential	0

[REACTIONS]
;Var	Value

[MIXING]
;Tank	Model

[TIMES]
;Var	Value
Duration	00:15
Pattern Timestep	01:00