[TITLE]

[JUNCTIONS]
;ID	Elev	Demand	Pattern
1	938.115	0.37488666844	1	;
10	940.025	0.035141412	1	;
100	940.548	0	1	;
101	940.966	0.08388028316	1	;
102	940.413	0.21291214732	1	;
103	940.231	0.1234464022	1	;
104	939.834	0.0582846121	1	;
105	939.641	0.55077432324	1	;
106	939.127	0.01598033404	1	;
107	939.328	0.0776402894	1	;
108	939.09	0.0357479385	1	;
109	938.182	0.094397502	1	;
11	940.026	0	1	;
110	939.103	0.0941113875	1	;
111	941.042	0.0834816866	1	;
112	941.025	0	1	;
113	940.851	0.11375115424	1	;
114	940.541	0.0401865948	1	;
115	940.792	0	1	;
116	940.891	0	1	;
117	941.275	0	1	;
118	939.212	0.02714570564	1	;
119	939.313	0.01003437632	1	;
12	940.025	0.0788557995	1	;
120	939.379	0.04865693288	1	;
121	940.986	0.25850186308	1	;
122	939.149	0.01196328992	1	;
123	939.211	0.022130471	1	;
124	939.507	0.0821164245	1	;
125	940.212	0	1	;
126	940.9	0.05784178032	1	;
127	940.233	0	1	;
128	940.39	0	1	;
129	940.719	0.06048077128	1	;
13	940.025	0.0407878185	1	;
130	940.935	0.0536234266	1	;
131	940.695	0	1	;
132	941.201	0	1	;
133	940.773	0	1	;
134	939.089	0.0101008523	1	;
135	939.157	0.2458144117	1	;
136	940.695	0.2069058277	1	;
137	940.639	0.0067290377	1	;
138	940.081	0.0084210049	1	;
139	940.201	0.0415935861	1	;
14	940.682	0.1015263106	1	;
140	940.026	0	1	;
141	939.827	0	1	;
142	939.675	0	1	;
143	940.915	0.02506988576	1	;
144	940.79	0.0350836651	1	;
145	940.068	0.0231256443	1	;
146	940.095	0	1	;
147	940.025	0.0339752248	1	;
148	940.026	0.0606037575	1	;
149	940.026	0.06808808228	1	;
15	933.446	0	1	;
150	939.652	0	1	;
151	939.237	0.0723994194	1	;
152	939.167	0	1	;
153	939.153	0	1	;
154	939.11	0	1	;
155	939.139	0	1	;
156	939.483	0.138406548	1	;
157	938.962	0	1	;
158	938.46	0.038821374	1	;
159	939.145	0	1	;
16	934.598	0.036322932	1	;
160	939.201	0	1	;
161	939.068	0.12800738152	1	;
162	938.817	0.18797938356	1	;
163	936.803	0.0304304176	1	;
164	937.693	0.03956651684	1	;
165	939.128	0.03179013656	1	;
166	938.852	0.01970273532	1	;
167	938.69	0.0532445984	1	;
168	938.775	0.10886831456	1	;
169	938.612	0	1	;
17	935.793	0.01639393336	1	;
170	939.614	0.0242628945	1	;
171	943.974	0	1	;
172	940.025	0.0322524465	1	;
173	940.025	0	1	;
174	939.728	0.07547834536	1	;
175	939.708	0	1	;
176	939.691	0.23967007076	1	;
177	938.67	0	1	;
178	937.449	0.18076451084	1	;
179	937.045	0.04151739068	1	;
18	934.82	0.0214558102	1	;
180	936.317	0	1	;
181	944.48	0.175268085	1	;
182	944.136	0	1	;
183	940.132	0	1	;
184	945.95	0.14476150692	1	;
185	944.315	0.20223430992	1	;
186	943.055	0.2149383435	1	;
187	943.012	0	1	;
188	942.712	0.07700209	1	;
189	940.132	0.06019527632	1	;
19	939.178	0.057317586	1	;
190	953.088	0	1	;
191	953.224	0	1	;
192	948.116	0	1	;
193	939.79	0	1	;
194	939.751	0.106785504	1	;
195	939.55	0	1	;
196	939.411	0	1	;
197	939.381	0	1	;
198	939.421	0	1	;
199	940.053	0	1	;
2	935.049	0.11930713788	1	;
20	936.192	0.1081712205	1	;
200	951.961	0.03436174312	1	;
201	942.73	0	1	;
202	942.291	0	1	;
203	938.295	0.1470159691	1	;
204	940.025	0.12832032456	1	;
205	940.037	0.16886849876	1	;
206	945.039	0.01867880028	1	;
207	935.049	0.04734256264	1	;
208	943.967	0	1	;
209	945.346	0.09009343268	1	;
21	936.314	0.144620619	1	;
210	945.529	0.05332695152	1	;
211	945.039	0.04378171076	1	;
212	945.039	0	1	;
213	942.734	0	1	;
214	942.833	0.0086998461	1	;
215	935.776	0.047208966	1	;
216	941.543	0	1	;
217	941.444	0.0576942861	1	;
218	941.741	0	1	;
219	941.965	0.07843211012	1	;
22	935.244	0.066274557	1	;
220	941.543	0	1	;
221	941.571	0	1	;
222	944.006	0.01792153608	1	;
223	942.583	0.06933046828	1	;
224	943.057	0.0912884071	1	;
225	940.661	0.2006660634	1	;
226	940.104	0.0433153545	1	;
227	940.105	0.1781607377	1	;
228	939.654	0.1520994453	1	;
229	939.878	0.0609924018	1	;
23	943.809	0.27296820448	1	;
230	938.131	0	1	;
231	938.131	0	1	;
232	938.126	0.0531308107	1	;
233	936.359	0.07485245632	1	;
234	937.913	0.0894126386	1	;
235	937.226	0.057785049	1	;
236	936.601	0.07672280632	1	;
237	937.721	0.0208015533	1	;
238	937.638	0.0205403946	1	;
239	936.473	0.02323849	1	;
24	935.429	0.01860384	1	;
240	936.007	0	1	;
241	936.083	0	1	;
242	936.024	0	1	;
243	935.499	0	1	;
244	935.469	0	1	;
245	935.385	0	1	;
246	935.496	0.02599823944	1	;
247	935.349	0	1	;
248	935.26	0	1	;
249	935.053	0	1	;
25	941.507	0	1	;
250	935.091	0	1	;
251	935.049	0	1	;
252	935.475	0	1	;
253	935.963	0.10833958456	1	;
254	936.788	0.05772831612	1	;
255	936.924	0.0535655329	1	;
256	937.946	0.0473295537	1	;
257	937.66	0.042755471	1	;
258	937.424	0	1	;
259	935.04	0.0719206518	1	;
26	937.393	0.0113971242	1	;
260	935.04	0.06341395664	1	;
261	935.173	0	1	;
262	935.434	0.00474633484	1	;
263	935.905	0	1	;
264	936.621	0.06991121584	1	;
265	936.56	0	1	;
266	936.704	0	1	;
267	935.04	0.1045450485	1	;
268	935.435	0.13948020536	1	;
269	935.04	0.1251664035	1	;
27	940.537	0.101262018	1	;
270	935.04	0.1626009015	1	;
271	935.04	0.069248676	1	;
272	935.04	0.04351108832	1	;
273	937.609	0.0264572704	1	;
274	936.907	0.1314525465	1	;
275	936.802	0.0621535684	1	;
276	936.966	0.0456252225	1	;
277	935.777	0.1074626806	1	;
278	935.618	0.0717165988	1	;
279	935.093	0.0457042377	1	;
28	940.025	0.0169029705	1	;
280	935.059	0.0070421804	1	;
281	935.161	0.0642662339	1	;
282	935.181	0	1	;
283	935.182	0.0861673725	1	;
284	935.167	0.1340262935	1	;
285	935.213	0.0167209504	1	;
286	935.273	0.0255949023	1	;
287	935.112	0.0337914742	1	;
288	938.446	0.0657752392	1	;
289	937.584	0.0676107322	1	;
29	940.026	0	1	;
290	938.865	0.1579492607	1	;
291	938.76	0.0237273465	1	;
292	937.567	0.0619827527	1	;
293	938.548	0.0130334457	1	;
294	938.628	0	1	;
295	938.918	0.0995204672	1	;
296	940.013	0.1416763117	1	;
297	940.132	0.1306024214	1	;
298	940.132	0.2222793276	1	;
299	942	0.1669605938	1	;
3	935.049	0	1	;
30	938.872	0.0439488345	1	;
300	936.636	0.0402238639	1	;
301	936.967	0.0767452609	1	;
302	938.118	0.1508082081	1	;
303	938.089	0.0139379801	1	;
304	939.135	0.1322898577	1	;
305	939.315	0.0638404151	1	;
306	940.057	0.0837326138	1	;
307	940.132	0.0613450662	1	;
308	939.96	0.0329549495	1	;
309	939.546	0.0606710236	1	;
31	938.303	0.1259462955	1	;
310	939.479	0.1532048815	1	;
311	941.857	0	1	;
312	941.694	0.01585405748	1	;
313	941.723	0.01166956024	1	;
314	941.597	0	1	;
315	940.701	0.08929484984	1	;
316	940.873	0.02503927344	1	;
317	937.19	0	1	;
318	936.929	0.0498078405	1	;
319	936.912	0.0686320335	1	;
32	937.725	0	1	;
320	938.046	0.0601986638	1	;
321	937.29	0.081376746	1	;
322	937.189	0.1019824333	1	;
323	936.09	0.1686084785	1	;
324	935.954	0	1	;
325	936.045	0.0646586006	1	;
326	935.437	0.0628623699	1	;
327	941.391	0.07261608604	1	;
328	940.132	0.0561409354	1	;
329	939.623	0.0615830996	1	;
33	937.758	0.09282991568	1	;
330	939.097	0.2303092341	1	;
331	938.672	0.0722907086	1	;
332	938.609	0.055758164	1	;
333	939.725	0.085453269	1	;
334	937.965	0.11247578496	1	;
335	937.82	0.10288026268	1	;
336	937.515	0.07082260132	1	;
337	939.013	0.0826716594	1	;
338	937.892	0.0826036464	1	;
339	938.373	0.16321462348	1	;
34	939.509	0	1	;
340	937.549	0.0864829405	1	;
341	937.488	0.0110489126	1	;
342	937.45	0	1	;
343	937.103	0.0054086535	1	;
344	937.612	0.0688533736	1	;
345	937.376	0	1	;
346	938.547	0.044504416	1	;
347	938.29	0.02599640868	1	;
348	938.058	0.04420396068	1	;
349	937.708	0	1	;
35	937.333	0	1	;
350	937.443	0.0284871584	1	;
351	937.978	0.06596554472	1	;
352	938.165	0.05937539776	1	;
353	937.497	0.22944480108	1	;
354	936.785	0.00448005768	1	;
355	936.671	0.10142900132	1	;
356	935.708	0.07655382732	1	;
357	938.726	0.0480142044	1	;
358	938.84	0	1	;
359	938.702	0.0052852245	1	;
36	938.331	0.0137576912	1	;
360	937.747	0	1	;
361	937.226	0.06826242628	1	;
362	938.694	0.02463079788	1	;
363	938.596	0	1	;
364	938.975	0	1	;
365	938.657	0	1	;
366	939.678	0.1057846132	1	;
367	939.765	0	1	;
368	944.004	0	1	;
369	935.163	0.0243048135	1	;
37	938.628	0.11722646064	1	;
370	935.715	0.0270680003	1	;
371	935.682	0.0055999471	1	;
372	935.739	0	1	;
373	936.525	0.07306262868	1	;
374	936.911	0.018384972	1	;
375	936.921	0.0267131115	1	;
376	937.083	0.0670925325	1	;
377	937.107	0	1	;
378	937.214	0	1	;
379	936.232	0.0561669163	1	;
38	939.461	0	1	;
380	936.205	0	1	;
381	935.158	0.0605697521	1	;
382	935.126	0	1	;
383	935.126	0	1	;
384	935.127	0	1	;
385	935.125	0	1	;
386	935.126	0.0082496194	1	;
387	935.04	0	1	;
388	935.04	0.0251473959	1	;
389	934.89	0.0085294495	1	;
39	935.049	0	1	;
390	934.763	0.035091826	1	;
391	935.049	0.00429155748	1	;
392	935.154	0.069649992	1	;
393	934.714	0.07725138	1	;
394	935.049	0.0754161232	1	;
395	935.049	0.0148346986	1	;
396	935.049	0.113676079	1	;
397	935.049	0.03487050792	1	;
398	935.049	0.02284865736	1	;
399	935.049	0.0552717671	1	;
4	935.049	0.14279693568	1	;
40	934.607	0	1	;
400	935.049	0.06874545092	1	;
401	935.049	0.04933186912	1	;
402	935.049	0.07792517608	1	;
403	935.049	0.2110026306	1	;
404	935.049	0.12348146012	1	;
405	936.478	0	1	;
406	936.336	0.1329775785	1	;
407	937.445	0	1	;
408	935.212	0.046467783	1	;
409	935.25	0.0735639975	1	;
41	935.049	0.0204383806	1	;
410	935.586	0.203078589	1	;
411	935.338	0.0193049625	1	;
412	935.24	0.0562485165	1	;
413	935.649	0.1631128335	1	;
414	936.724	0.0280355985	1	;
415	937.029	0.100756329	1	;
416	937.348	0.0361845126	1	;
417	935.049	0.01933671652	1	;
418	941.066	0	1	;
419	943.71	0	1	;
42	935.049	0.018660598	1	;
420	935.049	0.02881328232	1	;
421	941.664	0	1	;
422	940	0.07257399484	1	;
423	946.341	0.05127542288	1	;
424	939.372	0.0573751335	1	;
425	937.492	0.10668930908	1	;
426	938.672	0.03574346076	1	;
427	938.63	0.14397856472	1	;
428	938.249	0.0402578693	1	;
429	939.196	0.06015684368	1	;
43	935.04	0.2474350329	1	;
430	939.184	0.0926687348	1	;
431	938.775	0	1	;
432	945.039	0.1195561982	1	;
433	935.387	0.0414317211	1	;
434	937.24	0.04257152068	1	;
435	936.983	0	1	;
436	942.136	0	1	;
437	941.713	0	1	;
438	938.772	0.10432420248	1	;
439	944.53	0	1	;
44	938.319	0.06589783028	1	;
440	944.109	0	1	;
441	943.011	0	1	;
442	941.238	0.097564857	1	;
443	939.795	0.009939978	1	;
444	939.927	0	1	;
445	939.728	0	1	;
446	939.513	0	1	;
447	939.66	0.010746825	1	;
448	939.681	0	1	;
449	939.996	0	1	;
45	935.613	0.1355975955	1	;
450	941.354	0	1	;
451	940.124	0	1	;
452	941.26	0	1	;
453	941.357	0	1	;
454	940.809	0	1	;
455	940.072	0	1	;
456	940.521	0	1	;
457	940.047	0	1	;
458	940.026	0	1	;
459	940.026	0	1	;
46	936.35	0.18479795632	1	;
460	941.231	0.0184566915	1	;
461	941.186	0.021738486	1	;
462	939.606	0.0165969255	1	;
463	939.401	0	1	;
464	939.556	0	1	;
465	939.34	0	1	;
466	940.716	0.032049426	1	;
467	940.465	0.013753488	1	;
468	940.266	0	1	;
469	940.277	0.0187985955	1	;
47	937.108	0.13248244272	1	;
470	940.93	0	1	;
471	940.655	0	1	;
472	940.687	0	1	;
473	940.404	0.0049312564	1	;
474	940.214	0	1	;
475	941.118	0	1	;
476	940.886	0	1	;
477	941.074	0	1	;
478	940.193	0	1	;
479	941.17	0	1	;
48	939.702	0	1	;
480	940.708	0	1	;
481	940.457	0	1	;
482	940.273	0	1	;
483	941.043	0	1	;
484	940.616	0	1	;
485	939.107	0	1	;
486	939.095	0	1	;
487	955.17	0	1	;
488	940.803	0.46067064156	1	;
489	935.049	0.03473691276	1	;
49	951.935	0	1	;
490	935.049	0.0081285611	1	;
491	935.049	0	1	;
492	936.725	0.0337019976	1	;
493	939.086	0	1	;
494	935.789	0.00436842128	1	;
495	938.477	0.0358054365	1	;
496	935.663	0.10196685	1	;
497	935.198	0.0476540235	1	;
498	940.025	0.00878628	1	;
499	938.478	0.0679364775	1	;
5	937.946	0.15959990996	1	;
50	935.092	0.06000128532	1	;
500	937.983	0.57745006376	1	;
501	934.859	0.0423261168	1	;
502	939.619	0	1	;
503	935.04	0.0519029205	1	;
504	939.418	0	1	;
505	935.134	0.0944433325	1	;
506	935.04	0.07027305068	1	;
507	935.043	0.0434009235	1	;
508	936.668	0.05171171652	1	;
509	947.671	0.27509646372	1	;
51	935.873	0.0125464944	1	;
510	938.566	0	1	;
511	941.845	0.02349716228	1	;
512	935.04	0	1	;
513	939.829	0.0792464964	1	;
514	939.903	0	1	;
515	940.756	0	1	;
516	939.305	0.01232381644	1	;
517	941.254	0	1	;
518	940.766	0.034075756	1	;
519	939.675	0	1	;
52	939.344	0.111293006	1	;
520	940.789	0.0049892172	1	;
521	940.025	0.01311624544	1	;
522	939.154	0.0056366728	1	;
523	939.775	0.01109765716	1	;
524	938.713	0.0069073485	1	;
525	938.847	0.16100433228	1	;
526	936.337	0	1	;
527	953.984	0.10978269	1	;
528	944.479	0.013252686	1	;
529	955.779	0.11044584952	1	;
53	936.166	0.22575424348	1	;
530	939.975	0	1	;
531	939.528	0	1	;
532	950.068	0.0378956442	1	;
533	938.17	0.0161913378	1	;
534	935.362	0	1	;
535	945.039	0.00975071212	1	;
536	941.461	0	1	;
537	938.883	0	1	;
538	936.008	0.0401118333	1	;
539	936.929	0.0440868362	1	;
54	935.17	0.0676922576	1	;
540	936.506	0.0776764458	1	;
541	935.04	0.06064693976	1	;
542	935.047	0.0140726399	1	;
543	935.043	0.0542090552	1	;
544	942.788	0	1	;
545	939.577	0.0063507785	1	;
546	937.468	0.0303800904	1	;
547	937.17	0.081417303	1	;
548	938.49	0.0395206394	1	;
549	938.443	0.0944758529	1	;
55	935.075	0.01344566088	1	;
550	936.783	0.01665563732	1	;
551	935.694	0.08548909496	1	;
552	936.649	0.13864318988	1	;
553	937.635	0.15711127812	1	;
554	937.857	0.09276597376	1	;
555	937.84	0.00322644588	1	;
556	939.854	0.00925292744	1	;
557	935.574	0.021897876	1	;
558	935.04	0.03004639464	1	;
559	935.04	0.0182960646	1	;
56	935.085	0.11791924124	1	;
560	935.04	0	1	;
561	935.049	0.12748646888	1	;
562	936.623	0.1938594576	1	;
563	935.049	0	1	;
564	935.543	0.0444946485	1	;
565	935.678	0.012262212	1	;
566	935.049	0.23784319428	1	;
567	936.99	0.0551263493	1	;
568	935.049	0	1	;
569	939.853	0.0154668459	1	;
57	935.093	0.204095145	1	;
570	942.979	0.168280607	1	;
571	946.68	0	1	;
572	938.212	0	1	;
573	939.184	0.00497235156	1	;
574	935.84	0	1	;
575	937.032	0	1	;
576	940.785	0	1	;
577	941.341	0	1	;
578	940.53	0	1	;
579	941.285	0	1	;
58	935.07	0.1166050875	1	;
581	949.09	0	1	;
582	935.049	0	1	;
583	942.73	0	1	;
59	935.11	0.0536000817	1	;
6	936.885	0.01506529	1	;
60	935.125	0.0670987163	1	;
61	935.072	0.0033783442	1	;
62	935.162	0.0252330892	1	;
63	935.554	0	1	;
64	936.201	0.0490487492	1	;
65	936.042	0.0383141418	1	;
66	940.685	0.0757713561	1	;
67	940.03	0.0776767277	1	;
68	937.562	0.22035190752	1	;
69	935.045	0.0225303694	1	;
7	936.163	0	1	;
70	938.247	0.24025270532	1	;
71	935.448	0.087590145	1	;
72	938.033	0	1	;
73	936.856	0	1	;
74	937.532	0.0263865404	1	;
75	946.297	0.14733311496	1	;
76	946.29	0.02557731856	1	;
77	945.505	0	1	;
78	945.245	0.03310264348	1	;
79	942.764	0	1	;
8	935.419	0	1	;
80	945.17	0	1	;
81	944.063	0	1	;
82	943.627	0	1	;
83	940.132	0.1476057583	1	;
84	936.416	0	1	;
85	941.604	0	1	;
86	938.687	0	1	;
87	941.682	0.08497101504	1	;
88	941.621	0	1	;
89	935.04	0.095977641	1	;
9	939.09	0	1	;
90	943.653	0.0658117196	1	;
91	937.376	0.0715554136	1	;
92	940.041	0.08631979084	1	;
93	936.787	0	1	;
94	953.392	0	1	;
95	939.95	0.225533572	1	;
96	939.807	0.24923611144	1	;
97	939.892	0	1	;
98	939.807	0	1	;
99	941.238	0.0308690195	1	;

[RESERVOIRS]
;ID	Head	Pattern
580	983	 	;

[TANKS]
;ID	Elevation	InitLevel	MinLevel	MaxLevel	Diameter	MinVol	VolCurve

[PIPES]
;ID	Node1	Node2	Length	Diameter	Roughness	MinorLoss	Status
1	59	43	89.25	76.2	0.0015	26.775	Open	;
10	9	486	3.09	76.2	0.0015	0.927	Open	;
100	35	567	22.67	76.2	0.0015	6.801	Open	;
101	416	415	21.56	76.2	0.0015	6.468	Open	;
102	415	566	269.55	76.2	0.0015	80.865	Open	;
103	413	565	6.53	76.2	0.0015	1.959	Open	;
104	415	414	21.54	76.2	0.0015	6.462	Open	;
105	414	413	69.71	76.2	0.0015	20.913	Open	;
106	413	22	73.81	76.2	0.0015	22.143	Open	;
107	22	412	26.32	152.4	0.0015	7.896	Open	;
108	412	408	8.41	76.2	0.0015	2.523	Open	;
109	412	564	130.17	76.2	0.0015	39.051	Open	;
11	485	154	2.57	76.2	0.0015	0.771	Open	;
110	411	410	52.22	76.2	0.0015	15.666	Open	;
111	410	496	38.76	76.2	0.0015	11.628	Open	;
112	409	71	91.25	76.2	0.0015	27.375	Open	;
113	408	409	19.14	76.2	0.0015	5.742	Open	;
114	408	406	115.49	76.2	0.0015	34.647	Open	;
115	407	416	6.68	76.2	0.0015	2.004	Open	;
116	406	405	6.93	76.2	0.0015	2.079	Open	;
117	405	562	7.68	152.4	0.0015	2.304	Open	;
118	404	562	140.58	76.2	0.0015	42.174	Open	;
119	403	404	15.24	76.2	0.0015	4.572	Open	;
12	477	483	29.16	152.4	0.0015	8.748	Open	;
120	402	403	147.09	101.6	0.0015	44.127	Open	;
121	400	563	6.37	76.2	0.0015	1.911	Open	;
122	401	397	9.41	76.2	0.0015	2.823	Open	;
123	400	401	85.18	76.2	0.0015	25.554	Open	;
124	399	400	45.41	76.2	0.0015	13.623	Open	;
125	398	404	30.53	76.2	0.0015	9.159	Open	;
126	397	398	24.31	76.2	0.0015	7.293	Open	;
127	396	2	93.49	76.2	0.0015	28.047	Open	;
128	2	395	35.38	76.2	0.0015	10.614	Open	;
129	395	394	12.23	76.2	0.0015	3.669	Open	;
13	476	477	27.88	76.2	0.0015	8.364	Open	;
130	39	402	13.24	76.2	0.0015	3.972	Open	;
131	41	3	3.01	76.2	0.0015	0.903	Open	;
132	394	41	59.85	76.2	0.0015	17.955	Open	;
133	393	394	95.39	76.2	0.0015	28.617	Open	;
134	392	562	50.03	76.2	0.0015	15.009	Open	;
135	391	561	89.19	76.2	0.0015	26.757	Open	;
136	390	560	60	76.2	0.0015	18	Open	;
137	389	390	6.23	76.2	0.0015	1.869	Open	;
138	387	559	6.53	152.4	0.0015	1.959	Open	;
139	388	18	37.96	76.2	0.0015	11.388	Open	;
14	475	470	27.85	76.2	0.0015	8.355	Open	;
140	387	388	8.91	101.6	0.0015	2.673	Open	;
141	43	558	69.01	101.6	0.0015	20.703	Open	;
142	386	287	29.4	76.2	0.0015	8.82	Open	;
143	385	386	6.93	76.2	0.0015	2.079	Open	;
144	384	385	1.79	76.2	0.0015	0.537	Open	;
145	383	382	3.03	76.2	0.0015	0.909	Open	;
146	382	384	2.08	76.2	0.0015	0.624	Open	;
147	381	60	26.84	76.2	0.0015	8.052	Open	;
148	380	379	6.78	76.2	0.0015	2.034	Open	;
149	379	373	83.04	76.2	0.0015	24.912	Open	;
15	470	476	58.68	76.2	0.0015	17.604	Open	;
150	53	60	93.25	76.2	0.0015	27.975	Open	;
151	343	53	71.32	76.2	0.0015	21.396	Open	;
152	378	343	8.74	101.6	0.0015	2.622	Open	;
153	377	343	4.37	76.2	0.0015	1.311	Open	;
154	376	377	4.41	76.2	0.0015	1.323	Open	;
155	375	376	89.16	76.2	0.0015	26.748	Open	;
156	374	375	7.94	76.2	0.0015	2.382	Open	;
157	373	374	28.6	152.4	0.0015	8.58	Open	;
158	372	371	3.73	76.2	0.0015	1.119	Open	;
159	371	557	9.92	76.2	0.0015	2.976	Open	;
16	475	477	58.72	76.2	0.0015	17.616	Open	;
160	370	369	41.35	152.4	0.0015	12.405	Open	;
161	369	62	0.86	76.2	0.0015	0.258	Open	;
162	62	57	90.88	152.4	0.0015	27.264	Open	;
163	57	50	0.84	76.2	0.0015	0.252	Open	;
164	67	52	111.49	76.2	0.0015	33.447	Open	;
165	366	556	6.53	152.4	0.0015	1.959	Open	;
166	368	422	118.51	76.2	0.0015	35.553	Open	;
167	367	366	8.78	152.4	0.0015	2.634	Open	;
168	366	365	203.48	76.2	0.0015	61.044	Open	;
169	365	1	21.78	76.2	0.0015	6.534	Open	;
17	474	473	27.85	76.2	0.0015	8.355	Open	;
170	1	488	613.84	76.2	0.0015	184.152	Open	;
171	364	1	247.04	76.2	0.0015	74.112	Open	;
172	363	364	19.69	76.2	0.0015	5.907	Open	;
173	362	363	9.88	76.2	0.0015	2.964	Open	;
174	361	434	60.6	76.2	0.0015	18.18	Open	;
175	360	555	5.4	76.2	0.0015	1.62	Open	;
176	19	362	100.24	76.2	0.0015	30.072	Open	;
177	33	554	64.6	76.2	0.0015	19.38	Open	;
178	360	33	2.45	101.6	0.0015	0.735	Open	;
179	31	32	33.66	76.2	0.0015	10.098	Open	;
18	473	484	31.22	76.2	0.0015	9.366	Open	;
180	359	31	22	76.2	0.0015	6.6	Open	;
181	358	30	4.02	76.2	0.0015	1.206	Open	;
182	357	358	13.52	152.4	0.0015	4.056	Open	;
183	353	553	68.62	152.4	0.0015	20.586	Open	;
184	355	552	67.14	76.2	0.0015	20.142	Open	;
185	356	551	52.74	76.2	0.0015	15.822	Open	;
186	354	550	6.21	76.2	0.0015	1.863	Open	;
187	356	17	5.18	76.2	0.0015	1.554	Open	;
188	17	355	53.24	152.4	0.0015	15.972	Open	;
189	355	354	6.93	76.2	0.0015	2.079	Open	;
19	472	471	58.67	76.2	0.0015	17.601	Open	;
190	354	353	46.84	76.2	0.0015	14.052	Open	;
191	353	352	46.17	76.2	0.0015	13.851	Open	;
192	352	44	11.05	76.2	0.0015	3.315	Open	;
193	44	351	38.66	76.2	0.0015	11.598	Open	;
194	351	350	63.22	76.2	0.0015	18.966	Open	;
195	350	68	8.89	101.6	0.0015	2.667	Open	;
196	349	348	27.65	76.2	0.0015	8.295	Open	;
197	348	347	31.25	76.2	0.0015	9.375	Open	;
198	347	549	71.29	76.2	0.0015	21.387	Open	;
199	346	548	26.26	152.4	0.0015	7.878	Open	;
2	3	39	14.39	152.4	0.0015	4.317	Open	;
20	471	476	35.83	76.2	0.0015	10.749	Open	;
200	52	332	66.55	76.2	0.0015	19.965	Open	;
201	332	344	74.66	76.2	0.0015	22.398	Open	;
202	345	378	13.01	76.2	0.0015	3.903	Open	;
203	344	345	19.83	76.2	0.0015	5.949	Open	;
204	68	547	164.77	101.6	0.0015	49.431	Open	;
205	343	547	9.14	76.2	0.0015	2.742	Open	;
206	342	345	12.15	76.2	0.0015	3.645	Open	;
207	340	546	6.39	76.2	0.0015	1.917	Open	;
208	341	342	6.22	76.2	0.0015	1.866	Open	;
209	340	341	11.95	76.2	0.0015	3.585	Open	;
21	470	472	35.87	76.2	0.0015	10.761	Open	;
210	339	70	9.35	76.2	0.0015	2.805	Open	;
211	70	321	83.7	152.4	0.0015	25.11	Open	;
212	335	340	75.4	76.2	0.0015	22.62	Open	;
213	338	335	15.15	76.2	0.0015	4.545	Open	;
214	337	70	89.21	76.2	0.0015	26.763	Open	;
215	304	337	12.32	76.2	0.0015	3.696	Open	;
216	336	319	44.32	76.2	0.0015	13.296	Open	;
217	335	336	22.05	76.2	0.0015	6.615	Open	;
218	334	335	10.44	76.2	0.0015	3.132	Open	;
219	330	334	86.59	76.2	0.0015	25.977	Open	;
22	461	579	14.66	76.2	0.0015	4.398	Open	;
220	333	330	53.74	76.2	0.0015	16.122	Open	;
221	332	346	17.28	76.2	0.0015	5.184	Open	;
222	331	332	17.8	76.2	0.0015	5.34	Open	;
223	330	331	88.64	76.2	0.0015	26.592	Open	;
224	329	545	6.53	76.2	0.0015	1.959	Open	;
225	310	339	82.92	76.2	0.0015	24.876	Open	;
226	329	310	11.71	152.4	0.0015	3.513	Open	;
227	328	329	49.47	76.2	0.0015	14.841	Open	;
228	66	67	78.47	76.2	0.0015	23.541	Open	;
229	327	66	82.7	76.2	0.0015	24.81	Open	;
23	469	467	27.84	76.2	0.0015	8.352	Open	;
230	286	381	64.42	152.4	0.0015	19.326	Open	;
231	326	286	22.64	101.6	0.0015	6.792	Open	;
232	51	326	65.42	76.2	0.0015	19.626	Open	;
233	324	51	14.1	76.2	0.0015	4.23	Open	;
234	325	324	12.34	76.2	0.0015	3.702	Open	;
235	324	370	15.95	76.2	0.0015	4.785	Open	;
236	323	324	8.87	76.2	0.0015	2.661	Open	;
237	322	323	84.33	76.2	0.0015	25.299	Open	;
238	321	322	9.01	76.2	0.0015	2.703	Open	;
239	320	322	97.6	76.2	0.0015	29.28	Open	;
24	469	482	10.05	76.2	0.0015	3.015	Open	;
240	319	374	4.47	76.2	0.0015	1.341	Open	;
241	318	319	65.2	76.2	0.0015	19.56	Open	;
242	317	318	27.58	76.2	0.0015	8.274	Open	;
243	316	315	7.92	76.2	0.0015	47.52	Open	;
244	315	306	70.07	76.2	0.0015	21.021	Open	;
245	25	327	11.78	76.2	0.0015	3.534	Open	;
246	314	312	5.72	76.2	0.0015	1.716	Open	;
247	313	421	3.24	76.2	0.0015	0.972	Open	;
248	312	25	9.53	76.2	0.0015	2.859	Open	;
249	311	312	8.63	76.2	0.0015	51.78	Open	;
25	467	466	37.06	152.4	0.0015	11.118	Open	;
250	310	330	84.08	76.2	0.0015	25.224	Open	;
251	309	310	14.41	76.2	0.0015	4.323	Open	;
252	308	309	74.56	76.2	0.0015	22.368	Open	;
253	306	308	10.69	76.2	0.0015	3.207	Open	;
254	307	306	20.52	76.2	0.0015	123.12	Open	;
255	298	307	71.24	76.2	0.0015	21.372	Open	;
256	306	304	89.9	76.2	0.0015	26.97	Open	;
257	296	305	72.39	76.2	0.0015	21.717	Open	;
258	227	296	90.11	76.2	0.0015	27.033	Open	;
259	305	304	20.64	76.2	0.0015	123.84	Open	;
26	466	461	69.42	76.2	0.0015	20.826	Open	;
260	304	302	93.96	152.4	0.0015	28.188	Open	;
261	302	320	10.79	76.2	0.0015	3.237	Open	;
262	303	302	11.27	76.2	0.0015	67.62	Open	;
263	302	301	77.56	152.4	0.0015	23.268	Open	;
264	301	275	11.15	76.2	0.0015	3.345	Open	;
265	275	300	10.88	76.2	0.0015	3.264	Open	;
266	300	277	57.81	76.2	0.0015	17.343	Open	;
267	223	544	8.89	152.4	0.0015	2.667	Open	;
268	299	223	24.23	76.2	0.0015	145.38	Open	;
269	298	299	95.24	76.2	0.0015	28.572	Open	;
27	468	474	58.7	76.2	0.0015	17.61	Open	;
270	297	298	71.81	76.2	0.0015	21.543	Open	;
271	296	297	15.26	76.2	0.0015	4.578	Open	;
272	295	296	81.76	76.2	0.0015	24.528	Open	;
273	294	510	8.25	152.4	0.0015	2.475	Open	;
274	293	294	5.46	76.2	0.0015	1.638	Open	;
275	293	303	67.11	76.2	0.0015	20.133	Open	;
276	291	295	10.03	76.2	0.0015	3.009	Open	;
277	292	291	79.46	76.2	0.0015	23.838	Open	;
278	291	293	14.89	76.2	0.0015	4.467	Open	;
279	290	291	13.44	76.2	0.0015	80.64	Open	;
28	467	481	10.42	76.2	0.0015	3.126	Open	;
280	228	290	79.77	152.4	0.0015	23.931	Open	;
281	289	72	21.5	76.2	0.0015	6.45	Open	;
282	288	228	84.15	76.2	0.0015	25.245	Open	;
283	287	59	2.15	76.2	0.0015	0.645	Open	;
284	286	433	8.27	76.2	0.0015	2.481	Open	;
285	285	286	23.29	76.2	0.0015	6.987	Open	;
286	284	283	96.37	76.2	0.0015	28.911	Open	;
287	283	282	2.05	76.2	0.0015	0.615	Open	;
288	282	285	26.91	76.2	0.0015	8.073	Open	;
289	54	287	88.67	76.2	0.0015	26.601	Open	;
29	466	480	10.07	76.2	0.0015	3.021	Open	;
290	281	54	7.86	152.4	0.0015	2.358	Open	;
291	280	543	31.07	76.2	0.0015	9.321	Open	;
292	55	61	6.23	76.2	0.0015	1.869	Open	;
293	56	55	38.72	76.2	0.0015	11.616	Open	;
294	279	50	4.52	76.2	0.0015	1.356	Open	;
295	278	369	86.58	76.2	0.0015	25.974	Open	;
296	58	542	33.5	101.6	0.0015	10.05	Open	;
297	63	58	81.93	76.2	0.0015	24.579	Open	;
298	277	63	28.88	76.2	0.0015	8.664	Open	;
299	65	277	37.05	76.2	0.0015	11.115	Open	;
3	392	582	255.23	76.2	0.0015	76.569	Open	;
30	461	479	8.77	76.2	0.0015	2.631	Open	;
300	276	64	43.95	76.2	0.0015	13.185	Open	;
301	275	325	101.13	76.2	0.0015	30.339	Open	;
302	274	275	15.96	76.2	0.0015	95.76	Open	;
303	26	274	70.45	76.2	0.0015	21.135	Open	;
304	91	26	2.58	76.2	0.0015	0.774	Open	;
305	257	91	91.4	76.2	0.0015	27.42	Open	;
306	273	257	13.97	76.2	0.0015	4.191	Open	;
307	272	541	37.65	101.6	0.0015	11.295	Open	;
308	271	89	46.87	76.2	0.0015	14.061	Open	;
309	270	271	38.9	76.2	0.0015	11.67	Open	;
31	107	465	6.4	76.2	0.0015	1.92	Open	;
310	270	272	35.34	76.2	0.0015	10.602	Open	;
311	269	270	46.97	76.2	0.0015	14.091	Open	;
312	267	269	3.76	101.6	0.0015	1.128	Open	;
313	268	263	17.86	76.2	0.0015	5.358	Open	;
314	267	268	32.78	101.6	0.0015	9.834	Open	;
315	266	540	7.45	76.2	0.0015	2.235	Open	;
316	265	266	3.15	76.2	0.0015	0.945	Open	;
317	264	84	7.27	76.2	0.0015	2.181	Open	;
318	264	273	57.79	152.4	0.0015	17.337	Open	;
319	263	264	15.56	76.2	0.0015	4.668	Open	;
32	465	463	29.06	76.2	0.0015	8.718	Open	;
320	215	263	2.8	76.2	0.0015	0.84	Open	;
321	262	215	7.45	152.4	0.0015	2.235	Open	;
322	261	262	5.67	76.2	0.0015	1.701	Open	;
323	260	261	9.07	76.2	0.0015	2.721	Open	;
324	259	260	75.27	76.2	0.0015	22.581	Open	;
325	258	539	21.82	76.2	0.0015	6.546	Open	;
326	257	258	10.58	76.2	0.0015	3.174	Open	;
327	256	257	12.73	76.2	0.0015	3.819	Open	;
328	255	73	22.03	76.2	0.0015	6.609	Open	;
329	73	254	3.97	76.2	0.0015	1.191	Open	;
33	464	462	36.81	76.2	0.0015	11.043	Open	;
330	254	253	52.3	76.2	0.0015	15.69	Open	;
331	253	252	37.19	76.2	0.0015	11.157	Open	;
332	252	251	38.38	76.2	0.0015	11.514	Open	;
333	251	249	8.34	152.4	0.0015	2.502	Open	;
334	250	249	3.1	76.2	0.0015	0.93	Open	;
335	249	248	12.82	76.2	0.0015	3.846	Open	;
336	248	247	5.14	152.4	0.0015	1.542	Open	;
337	247	246	14.09	76.2	0.0015	4.227	Open	;
338	246	245	6.5	76.2	0.0015	1.95	Open	;
339	245	244	19.44	76.2	0.0015	5.832	Open	;
34	463	464	59.54	76.2	0.0015	17.862	Open	;
340	244	243	3.87	76.2	0.0015	1.161	Open	;
341	243	8	36.8	76.2	0.0015	11.04	Open	;
342	242	244	28.82	76.2	0.0015	8.646	Open	;
343	241	242	8.28	76.2	0.0015	2.484	Open	;
344	240	242	2.29	101.6	0.0015	0.687	Open	;
345	239	538	24.75	76.2	0.0015	7.425	Open	;
346	238	74	7.09	76.2	0.0015	2.127	Open	;
347	238	425	38.08	152.4	0.0015	11.424	Open	;
348	237	238	11.19	152.4	0.0015	3.357	Open	;
349	236	235	42.9	76.2	0.0015	12.87	Open	;
35	463	478	110.42	76.2	0.0015	33.126	Open	;
350	235	234	46.95	76.2	0.0015	14.085	Open	;
351	234	525	97.88	76.2	0.0015	29.364	Open	;
352	235	255	41.84	101.6	0.0015	12.552	Open	;
353	234	237	27.87	76.2	0.0015	8.361	Open	;
354	233	236	16.33	152.4	0.0015	4.899	Open	;
355	232	205	87.56	76.2	0.0015	26.268	Open	;
356	232	288	6.78	76.2	0.0015	2.034	Open	;
357	231	232	14.82	152.4	0.0015	4.446	Open	;
358	231	537	6.21	76.2	0.0015	1.863	Open	;
359	230	231	8.2	76.2	0.0015	2.46	Open	;
36	462	469	104.1	101.6	0.0015	31.23	Open	;
360	229	228	9.96	76.2	0.0015	2.988	Open	;
361	228	256	76.78	152.4	0.0015	23.034	Open	;
362	227	229	82.26	76.2	0.0015	24.678	Open	;
363	226	227	3.52	76.2	0.0015	1.056	Open	;
364	225	298	92.25	76.2	0.0015	27.675	Open	;
365	225	226	81.74	76.2	0.0015	24.522	Open	;
366	224	225	104.7	76.2	0.0015	31.41	Open	;
367	223	311	89.13	76.2	0.0015	26.739	Open	;
368	90	223	94.92	76.2	0.0015	28.476	Open	;
369	222	90	71.67	76.2	0.0015	21.501	Open	;
37	461	460	66.5	76.2	0.0015	19.95	Open	;
370	221	220	1.42	76.2	0.0015	0.426	Open	;
371	220	536	7.45	76.2	0.0015	2.235	Open	;
372	85	218	11.98	76.2	0.0015	3.594	Open	;
373	219	82	77.03	76.2	0.0015	23.109	Open	;
374	218	219	10.53	76.2	0.0015	3.159	Open	;
375	217	225	71.4	76.2	0.0015	21.42	Open	;
376	216	217	9.29	76.2	0.0015	2.787	Open	;
377	88	216	7.25	76.2	0.0015	2.175	Open	;
378	205	87	88.73	76.2	0.0015	26.619	Open	;
379	87	88	5.62	76.2	0.0015	1.686	Open	;
38	460	442	11.19	76.2	0.0015	3.357	Open	;
380	215	289	71.8	76.2	0.0015	21.54	Open	;
381	214	213	26.26	152.4	0.0015	7.878	Open	;
382	213	201	10.28	101.6	0.0015	3.084	Open	;
383	212	432	14.94	152.4	0.0015	4.482	Open	;
384	211	535	23.85	152.4	0.0015	7.155	Open	;
385	210	77	9.41	76.2	0.0015	2.823	Open	;
386	209	210	59.62	76.2	0.0015	17.886	Open	;
387	80	439	40.84	152.4	0.0015	12.252	Open	;
388	208	419	15.05	76.2	0.0015	4.515	Open	;
389	203	420	43.82	76.2	0.0015	13.146	Open	;
39	459	444	46.47	76.2	0.0015	13.941	Open	;
390	207	534	12.53	76.2	0.0015	3.759	Open	;
391	206	432	10.23	76.2	0.0015	3.069	Open	;
392	205	204	13.77	76.2	0.0015	4.131	Open	;
393	204	203	75.97	76.2	0.0015	22.791	Open	;
394	203	533	26.29	76.2	0.0015	7.887	Open	;
395	92	205	7.21	76.2	0.0015	2.163	Open	;
396	202	583	11.8	76.2	0.0015	3.54	Open	;
397	201	441	7.65	152.4	0.0015	2.295	Open	;
398	200	185	121.02	76.2	0.0015	36.306	Open	;
399	184	532	98.09	76.2	0.0015	29.427	Open	;
4	233	567	57.45	152.4	0.0015	17.235	Open	;
40	458	457	6.85	76.2	0.0015	2.055	Open	;