[TITLE]

[JUNCTIONS]
;ID	Elev	Demand	Pattern
1	2083.5	0.1	 	;
10	2039.5	0.05	 	;
100	2073.5	0.05	 	;
1000	1988.5	0.05	 	;
1001	1983.5	0	 	;
1002	1989.5	0.05	 	;
1003	1979.5	0	 	;
1004	1983.5	0	 	;
1005	1970.5	0	 	;
1006	1970.5	0	 	;
1007	1970.5	0	 	;
1008	1970.5	0	 	;
1009	1970.5	0.05	 	;
101	2074.5	0.05	 	;
1010	1970.5	0	 	;
1011	1983.5	0.05	 	;
1012	2026.5	0.1	 	;
1013	2068.5	0.1	 	;
1014	2026.5	0.25	 	;
1015	2011.5	0.1	 	;
1016	2006.5	0.1	 	;
1017	2006.5	0	 	;
1018	2006.5	0.15	 	;
1019	2002.5	0.15	 	;
102	1896.5	0	 	;
1020	2068.5	0	 	;
1021	2074.5	0.2	 	;
1022	2073.5	0.2	 	;
1023	2094.5	0.1	 	;
1024	1921.5	0.05	 	;
1025	1899.5	0	 	;
1026	1901.5	0	 	;
1027	1901.5	0	 	;
1028	1901.5	0	 	;
1029	1901.5	0	 	;
103	2086.5	0	 	;
1030	1896.5	0	 	;
1031	1899.5	0.05	 	;
1032	1899.5	0.05	 	;
1033	1906.5	0	 	;
1034	1906.5	0	 	;
1035	1907.5	0.05	 	;
1036	1906.5	0	 	;
1037	1906.5	0.15	 	;
1038	1901.5	0.1	 	;
1039	1901.5	0	 	;
104	1995.5	0	 	;
1040	1901.5	0	 	;
1041	1901.5	0	 	;
1042	1901.5	0	 	;
1043	1907.5	0.05	 	;
1044	1907.5	0	 	;
1045	1907.5	0	 	;
1046	1901.5	0.05	 	;
1047	1901.5	0	 	;
1048	1901.5	0	 	;
1049	1970.5	0.05	 	;
105	2112.5	0.05	 	;
1050	1979.5	0.05	 	;
1051	1979.5	0	 	;
1052	1979.5	0.1	 	;
1053	1979.5	0.05	 	;
1054	1979.5	0.1	 	;
1055	1979.5	0.1	 	;
1056	1979.5	0	 	;
1057	1979.5	0	 	;
1058	1970.5	0.1	 	;
1059	1970.5	0.05	 	;
106	1970.5	0	 	;
1060	1970.5	0	 	;
1061	1970.5	0	 	;
1062	1988.5	0	 	;
1063	1988.5	0.25	 	;
1064	1988.5	0	 	;
1065	1984.5	0.15	 	;
1066	1984.5	0.1	 	;
1067	1984.5	0	 	;
1068	1984.5	0.05	 	;
1069	1984.5	0	 	;
107	1907.5	0.05	 	;
1070	1984.5	0	 	;
1071	1984.5	0	 	;
1072	1984.5	0.05	 	;
1073	1984.5	0.05	 	;
1074	1969.5	0	 	;
1075	1969.5	0	 	;
1076	1969.5	0	 	;
1077	1989.5	0	 	;
1078	1989.5	0	 	;
1079	1989.5	0	 	;
108	1901.5	0.05	 	;
1080	1989.5	0	 	;
1081	1990.5	0.05	 	;
1082	1990.5	0	 	;
1083	1990.5	0.05	 	;
1084	1990.5	0.05	 	;
1085	1981.5	0	 	;
1086	1986.5	0.05	 	;
1087	1986.5	0	 	;
1088	1986.5	0	 	;
1089	1986.5	0	 	;
109	2069.5	0.2	 	;
1090	1986.5	0	 	;
1091	1989.5	0	 	;
1092	1989.5	0	 	;
1093	1989.5	0	 	;
1094	1987.5	0.1	 	;
1095	1987.5	0	 	;
1096	1987.5	0	 	;
1097	1987.5	0	 	;
1098	1983.5	0	 	;
1099	1983.5	0	 	;
11	2027.5	0	 	;
110	2051.5	0	 	;
1100	1983.5	0.05	 	;
1101	1983.5	0	 	;
1102	1983.5	0	 	;
1103	1983.5	0	 	;
1104	1983.5	0	 	;
1105	1983.5	0.05	 	;
1106	1979.5	0	 	;
1107	1979.5	0	 	;
1108	1979.5	0.05	 	;
1109	1981.5	0	 	;
111	1970.5	0.05	 	;
1110	2025.5	0.05	 	;
1111	2015.5	0.05	 	;
1112	2026.5	0.15	 	;
1113	2026.5	0.1	 	;
1114	2022.5	0.05	 	;
1115	2032.5	0.1	 	;
1116	2032.5	0.1	 	;
1117	2028.5	0	 	;
1118	2023.5	0	 	;
1119	2022.5	0	 	;
112	1957.5	0	 	;
1120	2022.5	0.05	 	;
1121	2022.5	0	 	;
1122	1999.5	0	 	;
1123	1995.5	0.1	 	;
1124	1995.5	0.05	 	;
1125	1995.5	0	 	;
1126	1995.5	0	 	;
1127	1995.5	0	 	;
1128	1995.5	0	 	;
1129	1995.5	0	 	;
113	1989.5	0.05	 	;
1130	1995.5	0	 	;
1131	1995.5	0	 	;
1132	1980.5	0	 	;
1133	1980.5	0	 	;
1134	1980.5	0	 	;
1135	1980.5	0	 	;
1136	1980.5	0	 	;
1137	1980.5	0	 	;
1138	1980.5	0	 	;
1139	1980.5	0	 	;
114	2077.5	0.05	 	;
1140	1980.5	0	 	;
1141	1980.5	0	 	;
1142	1966.5	0.05	 	;
1143	1986.5	0	 	;
1144	1986.5	0.05	 	;
1145	2011.5	0	 	;
1146	1989.5	0.1	 	;
1147	1989.5	0	 	;
1148	1986.5	0.05	 	;
1149	1986.5	0	 	;
115	2080.5	0	 	;
1150	1986.5	0	 	;
1151	1986.5	0	 	;
1152	1986.5	0	 	;
1153	1986.5	0.05	 	;
1154	1986.5	0	 	;
1155	1986.5	0.05	 	;
1156	1986.5	0	 	;
1157	1986.5	0	 	;
1158	1989.5	0	 	;
1159	1995.5	0.05	 	;
116	2105.5	0	 	;
1160	1995.5	0	 	;
1161	1995.5	0	 	;
1162	1995.5	0	 	;
1163	1995.5	0	 	;
1164	1995.5	0	 	;
1165	1995.5	0.05	 	;
1166	1995.5	0.05	 	;
1167	1994.5	0.05	 	;
1168	1990.5	0	 	;
1169	1990.5	0	 	;
117	2083.5	0.2	 	;
1170	1990.5	0	 	;
1171	1990.5	0	 	;
1172	1995.5	0.05	 	;
1173	1990.5	0	 	;
1174	1999.5	0.05	 	;
1175	1999.5	0	 	;
1176	1999.5	0.05	 	;
1177	2001.5	0.05	 	;
1178	2001.5	0	 	;
1179	2001.5	0	 	;
118	1987.5	0	 	;
1180	2001.5	0.1	 	;
1181	2007.5	0.05	 	;
1182	2007.5	0.1	 	;
1183	2010.5	0.1	 	;
1184	2011.5	0	 	;
1185	2011.5	0	 	;
1186	2011.5	0	 	;
1187	2011.5	0	 	;
1188	2011.5	0	 	;
1189	2011.5	0	 	;
119	1994.5	0	 	;
1190	2007.5	0	 	;
1191	2007.5	0	 	;
1192	2007.5	0	 	;
1193	2007.5	0	 	;
1194	2007.5	0.05	 	;
1195	2000.5	0.1	 	;
1196	1988.5	0	 	;
1197	1989.5	0	 	;
1198	1989.5	0.05	 	;
1199	1989.5	0	 	;
12	2100.5	0	 	;
120	2048.5	0.05	 	;
1200	1989.5	0	 	;
1201	1989.5	0.05	 	;
1202	1990.5	0.05	 	;
1203	1988.5	0.1	 	;
1204	1988.5	0	 	;
1205	1981.5	0	 	;
1206	1974.5	0.05	 	;
1207	1974.5	0	 	;
1208	1974.5	0	 	;
1209	1981.5	0	 	;
121	1994.5	0.05	 	;
1210	1981.5	0	 	;
1211	1989.5	0	 	;
1212	1981.5	0	 	;
1213	1981.5	0.05	 	;
1214	1978.5	0	 	;
1215	1978.5	0	 	;
1216	1978.5	0	 	;
1217	1988.5	0.05	 	;
1218	1988.5	0	 	;
1219	1988.5	0	 	;
122	2079.5	0	 	;
1220	1981.5	0	 	;
1221	1981.5	0	 	;
1222	1981.5	0	 	;
1223	1981.5	0	 	;
1224	1981.5	0	 	;
1225	1981.5	0.05	 	;
1226	1989.5	0	 	;
1227	1989.5	0.1	 	;
1228	1981.5	0	 	;
1229	1981.5	0	 	;
123	2079.5	0	 	;
1230	1966.5	0	 	;
1231	1966.5	0	 	;
1232	1966.5	0	 	;
1233	1978.5	0	 	;
1234	1978.5	0.1	 	;
1235	1976.5	0.05	 	;
1236	1976.5	0.05	 	;
1237	1989.5	0	 	;
1238	1989.5	0	 	;
1239	1981.5	0	 	;
124	2073.5	0	 	;
1240	1970.5	0	 	;
1241	1964.5	0	 	;
1242	1964.5	0	 	;
1243	1973.5	0	 	;
1244	1973.5	0	 	;
1245	1973.5	0.05	 	;
1246	1973.5	0	 	;
1247	1971.5	0	 	;
1248	1971.5	0	 	;
1249	1971.5	0	 	;
125	2079.5	0.2	 	;
1250	1964.5	0	 	;
1251	1964.5	0	 	;
1252	1964.5	0	 	;
1253	1970.5	0	 	;
1254	1970.5	0	 	;
1255	1970.5	0.05	 	;
1256	1970.5	0	 	;
1257	1970.5	0	 	;
1258	1970.5	0	 	;
1259	1973.5	0	 	;
126	2079.5	0	 	;
1260	1973.5	0	 	;
1261	1973.5	0	 	;
1262	1973.5	0	 	;
1263	1964.5	0	 	;
1264	1964.5	0	 	;
1265	1964.5	0	 	;
1266	1982.5	0	 	;
1267	1964.5	0	 	;
1268	1964.5	0	 	;
1269	1964.5	0	 	;
127	1994.5	0	 	;
1270	1964.5	0	 	;
1271	1964.5	0	 	;
1272	1970.5	0	 	;
1273	1970.5	0	 	;
1274	1970.5	0	 	;
1275	1970.5	0	 	;
1276	1970.5	0	 	;
1277	1970.5	0	 	;
1278	1964.5	0	 	;
1279	1964.5	0	 	;
128	2079.5	0	 	;
1280	1982.5	0	 	;
1281	1970.5	0	 	;
1282	1970.5	0.1	 	;
1283	1953.5	0.1	 	;
1284	1977.5	0	 	;
1285	1977.5	0	 	;
1286	1972.5	0	 	;
1287	1972.5	0	 	;
1288	1972.5	0	 	;
1289	1972.5	0	 	;
129	2084.5	0.1	 	;
1290	1980.5	0.05	 	;
1291	1989.5	0	 	;
1292	1989.5	0	 	;
1293	1989.5	0	 	;
1294	1989.5	0.05	 	;
1295	1980.5	0	 	;
1296	1980.5	0.05	 	;
1297	1980.5	0.1	 	;
1298	1971.5	0	 	;
1299	1971.5	0	 	;
13	2085.5	0	 	;
130	2084.5	0	 	;
1300	1971.5	0.05	 	;
1301	1971.5	0.05	 	;
1302	2039.5	0	 	;
1303	2051.5	0	 	;
1304	2051.5	0.1	 	;
1305	2051.5	0.05	 	;
1306	2039.5	0	 	;
1307	2039.5	0	 	;
1308	2039.5	0	 	;
1309	2039.5	0	 	;
131	2089.5	0	 	;
1310	2039.5	0	 	;
1311	2085.5	0	 	;
1312	2085.5	0	 	;
1313	2085.5	0	 	;
1314	2091.5	0.05	 	;
1315	2091.5	0	 	;
1316	2091.5	0	 	;
1317	2094.5	0	 	;
1318	2094.5	0	 	;
1319	2094.5	0	 	;
132	2100.5	0	 	;
1320	2100.5	0.05	 	;
1321	2100.5	0	 	;
1322	2073.5	0.05	 	;
1323	2074.5	0	 	;
1324	2069.5	0	 	;
1325	2069.5	0	 	;
1326	2074.5	0	 	;
1327	2074.5	0.05	 	;
1328	2065.5	0.15	 	;
1329	2074.5	0	 	;
133	1995.5	0	 	;
1330	2074.5	0	 	;
1331	2077.5	0.05	 	;
1332	2077.5	0	 	;
1333	2077.5	0	 	;
1334	2055.5	0.05	 	;
1335	2055.5	0	 	;
1336	2042.5	0.1	 	;
1337	2042.5	0.05	 	;
1338	2042.5	0.15	 	;
1339	2052.5	0	 	;
134	1989.5	0	 	;
1340	2052.5	0.05	 	;
1341	2052.5	0.05	 	;
1342	2052.5	0	 	;
1343	2048.5	0	 	;
1344	2030.5	0	 	;
1345	2030.5	0	 	;
1346	2088.5	0	 	;
1347	1931.5	0	 	;
1348	2088.5	0	 	;
1349	2098.5	0	 	;
135	2134.5	0	 	;
1350	2098.5	0	 	;
1351	2093.5	0.1	 	;
1352	2093.5	0	 	;
1353	2093.5	0	 	;
1354	2098.5	0	 	;
1355	2098.5	0	 	;
1356	2101.5	0	 	;
1357	2101.5	0	 	;
1358	2101.5	0	 	;
1359	2101.5	0.1	 	;
136	2079.5	0	 	;
1360	2093.5	0.1	 	;
1361	2093.5	0	 	;
1362	2098.5	0	 	;
1363	2098.5	0	 	;
1364	2098.5	0	 	;
1365	2098.5	0	 	;
1366	2039.5	0	 	;
1367	2039.5	0	 	;
1368	2039.5	0	 	;
1369	2065.5	0.1	 	;
137	2078.5	0.05	 	;
1370	2070.5	0.05	 	;
1371	2070.5	0	 	;
1372	2066.5	0	 	;
1373	2066.5	0.05	 	;
1374	2066.5	0	 	;
1375	2066.5	0	 	;
1376	2066.5	0	 	;
1377	1922.5	0.05	 	;
1378	1931.5	0	 	;
1379	1931.5	0	 	;
138	2078.5	0.1	 	;
1380	2105.5	0	 	;
1381	2105.5	0	 	;
1382	2105.5	0	 	;
1383	2123.5	0	 	;
1384	2131.5	0	 	;
1385	2134.5	0	 	;
1386	2134.5	0	 	;
1387	2134.5	0	 	;
1388	2109.5	0	 	;
1389	2109.5	0	 	;
139	2067.5	0	 	;
1390	2109.5	0	 	;
1391	2109.5	0	 	;
1392	2112.5	0	 	;
1393	2112.5	0	 	;
1394	2071.5	0	 	;
1395	2071.5	0.1	 	;
1396	2067.5	0.05	 	;
1397	2078.5	0	 	;
1398	2048.5	0	 	;
1399	2048.5	0	 	;
14	2085.5	0	 	;
140	2048.5	0.05	 	;
1400	1995.5	0.05	 	;
1401	2015.5	0.1	 	;
1402	2015.5	0.35	 	;
1403	2021.5	0.05	 	;
1404	2014.5	0	 	;
1405	2014.5	0.05	 	;
1406	2014.5	0.05	 	;
1407	1970.5	0.1	 	;
1408	1989.5	0	 	;
1409	1989.5	0.05	 	;
141	2091.5	0	 	;
1410	1989.5	0	 	;
1411	1985.5	0.05	 	;
1412	2006.5	0	 	;
1413	2006.5	0.05	 	;
142	2091.5	0	 	;
143	2085.5	0.05	 	;
144	1974.5	0.05	 	;
145	1977.5	0	 	;
146	2046.5	0.15	 	;
147	1982.5	0.1	 	;
148	1983.5	0.05	 	;
149	1958.5	0.1	 	;
15	1995.5	0	 	;
150	1982.5	0	 	;
151	2116.5	0	 	;
152	1969.5	0.05	 	;
153	1969.5	0	 	;
154	1957.5	0.05	 	;
155	2010.5	0	 	;
156	2011.5	0.05	 	;
157	2006.5	0	 	;
158	1985.5	0	 	;
159	1989.5	0	 	;
16	1970.5	0	 	;
160	2006.5	0	 	;
161	2021.5	0.1	 	;
162	2021.5	0.1	 	;
163	2006.5	0	 	;
164	2069.5	0	 	;
165	2069.5	0.05	 	;
166	2073.5	0	 	;
167	2011.5	0.05	 	;
168	2011.5	0.1	 	;
169	2014.5	0	 	;
17	2088.5	0.05	 	;
170	2011.5	0	 	;
171	2068.5	0	 	;
172	1977.5	0	 	;
173	1977.5	0	 	;
174	2091.5	0	 	;
175	2091.5	0	 	;
176	2044.5	0	 	;
177	2052.5	0.05	 	;
178	2093.5	0	 	;
179	2039.5	0.1	 	;
18	2112.5	0	 	;
180	2060.5	0	 	;
181	2060.5	0	 	;
182	2060.5	0	 	;
183	2065.5	0	 	;
184	2065.5	0	 	;
185	2085.5	0.05	 	;
186	2044.5	0.05	 	;
187	2027.5	0.05	 	;
188	2034.5	0	 	;
189	2052.5	0	 	;
19	1983.5	0	 	;
190	2052.5	0	 	;
191	2052.5	0	 	;
192	2052.5	0	 	;
193	2050.5	0.1	 	;
194	2025.5	0	 	;
195	2025.5	0	 	;
196	2025.5	0	 	;
197	2034.5	0	 	;
198	2034.5	0	 	;
199	2034.5	0	 	;
2	1986.5	0	 	;
20	1971.5	0	 	;
200	2034.5	0	 	;
201	2052.5	0.05	 	;
202	2054.5	0	 	;
203	2054.5	0	 	;
204	2052.5	0	 	;
205	2052.5	0	 	;
206	2044.5	0.05	 	;
207	2069.5	0	 	;
208	2069.5	0.05	 	;
209	2071.5	0	 	;
21	2055.5	0	 	;
210	2044.5	0.05	 	;
211	2044.5	0.2	 	;
212	2037.5	0.1	 	;
213	2052.5	0.1	 	;
214	2052.5	0	 	;
215	2045.5	0	 	;
216	2045.5	0.05	 	;
217	2052.5	0.15	 	;
218	2052.5	0.05	 	;
219	2052.5	0	 	;
22	2055.5	0	 	;
220	2054.5	0	 	;
221	2054.5	0	 	;
222	2054.5	0.05	 	;
223	2054.5	0	 	;
224	2054.5	0.05	 	;
225	2053.5	0	 	;
226	2053.5	0	 	;
227	2053.5	0	 	;
228	2053.5	0	 	;
229	2053.5	0	 	;
23	2069.5	0.05	 	;
230	2067.5	0	 	;
231	2067.5	0.05	 	;
232	2067.5	0	 	;
233	2071.5	0	 	;
234	2071.5	0.05	 	;
235	2071.5	0.1	 	;
236	2071.5	0	 	;
237	2071.5	0	 	;
238	2071.5	0	 	;
239	2071.5	0	 	;
24	2065.5	0.2	 	;
240	2071.5	0	 	;
241	2071.5	0	 	;
242	2071.5	0.05	 	;
243	2071.5	0	 	;
244	2066.5	0	 	;
245	2055.5	0.05	 	;
246	1983.5	0	 	;
247	1965.5	0.05	 	;
248	1965.5	0	 	;
249	1965.5	0	 	;
25	2071.5	0.1	 	;
250	1965.5	0	 	;
251	1971.5	0.05	 	;
252	1971.5	0	 	;
253	1971.5	0	 	;
254	1971.5	0	 	;
255	1971.5	0.05	 	;
256	1977.5	0.1	 	;
257	2002.5	0.05	 	;
258	2003.5	0	 	;
259	2108.5	0.05	 	;
26	2071.5	0	 	;
260	2108.5	0	 	;
261	2074.5	0.05	 	;
262	2074.5	0.05	 	;
263	2074.5	0.1	 	;
264	2074.5	0.05	 	;
265	2074.5	0.05	 	;
266	2074.5	0	 	;
267	2074.5	0	 	;
268	2074.5	0	 	;
269	2074.5	0	 	;
27	1981.5	0	 	;
270	2073.5	0	 	;
271	2073.5	0	 	;
272	2073.5	0	 	;
273	2073.5	0.05	 	;
274	2073.5	0.05	 	;
275	2053.5	0	 	;
276	2003.5	0	 	;
277	2003.5	0	 	;
278	2003.5	0	 	;
279	2003.5	0	 	;
28	2069.5	0	 	;
280	2003.5	0	 	;
281	2004.5	0	 	;
282	2004.5	0	 	;
283	2004.5	0.05	 	;
284	2004.5	0	 	;
285	2004.5	0	 	;
286	2004.5	0	 	;
287	2008.5	0	 	;
288	2008.5	0.05	 	;
289	2008.5	0.05	 	;
29	2069.5	0	 	;
290	2008.5	0	 	;
291	2015.5	0.05	 	;
292	2015.5	0	 	;
293	2015.5	0.05	 	;
294	2019.5	0.1	 	;
295	2019.5	0.2	 	;
296	2022.5	0.05	 	;
297	2022.5	0.05	 	;
298	2028.5	0.1	 	;
299	2002.5	0.05	 	;
3	1981.5	0.1	 	;
30	2069.5	0	 	;
300	2002.5	0	 	;
301	2002.5	0.05	 	;
302	2014.5	0	 	;
303	2014.5	0.1	 	;
304	2014.5	0.1	 	;
305	2011.5	0.1	 	;
306	2014.5	0.35	 	;
307	2024.5	0.05	 	;
308	2023.5	0.1	 	;
309	1970.5	0	 	;
31	1994.5	0	 	;
310	1970.5	0.05	 	;
311	1957.5	0.05	 	;
312	1972.5	0	 	;
313	1972.5	0	 	;
314	2071.5	0.05	 	;
315	2071.5	0	 	;
316	2071.5	0	 	;
317	2071.5	0	 	;
318	2071.5	0	 	;
319	2071.5	0	 	;
32	1999.5	0	 	;
320	2071.5	0	 	;
321	2071.5	0	 	;
322	2071.5	0.05	 	;
323	2071.5	0.05	 	;
324	2071.5	0.05	 	;
325	2071.5	0	 	;
326	2071.5	0	 	;
327	2067.5	0.1	 	;
328	2067.5	0	 	;
329	2053.5	0	 	;
33	1999.5	0	 	;
330	2053.5	0.05	 	;
331	2053.5	0	 	;
332	2054.5	0	 	;
333	2054.5	0	 	;
334	2054.5	0.05	 	;
335	2054.5	0	 	;
336	2052.5	0	 	;
337	2052.5	0	 	;
338	2052.5	0	 	;
339	2052.5	0	 	;
34	1990.5	0	 	;
340	2052.5	0	 	;
341	2052.5	0	 	;
342	2052.5	0	 	;
343	2052.5	0	 	;
344	2052.5	0	 	;
345	2030.5	0	 	;
346	2030.5	0	 	;
347	2030.5	0	 	;
348	2051.5	0	 	;
349	2051.5	0	 	;
35	2026.5	0	 	;
350	2051.5	0	 	;
351	2060.5	0	 	;
352	2060.5	0.05	 	;
353	2065.5	0.05	 	;
354	2079.5	0	 	;
355	2080.5	0	 	;
356	2084.5	0	 	;
357	2085.5	0.05	 	;
358	2098.5	0	 	;
359	2101.5	0	 	;
36	2026.5	0	 	;
360	2101.5	0	 	;
361	2101.5	0	 	;
362	2101.5	0	 	;
363	2101.5	0.05	 	;
364	2109.5	0	 	;
365	2109.5	0.05	 	;
366	2123.5	0	 	;
367	2114.5	0.1	 	;
368	2109.5	0	 	;
369	2105.5	0	 	;
37	2093.5	0	 	;
370	2101.5	0	 	;
371	2101.5	0.05	 	;
372	2101.5	0	 	;
373	2085.5	0	 	;
374	2085.5	0.05	 	;
375	2080.5	0.05	 	;
376	2065.5	0	 	;
377	2060.5	0.1	 	;
378	2060.5	0.05	 	;
379	2051.5	0.1	 	;
38	2055.5	0	 	;
380	2051.5	0	 	;
381	2051.5	0	 	;
382	2039.5	0.05	 	;
383	2030.5	0	 	;
384	2030.5	0	 	;
385	2030.5	0	 	;
386	2030.5	0	 	;
387	2030.5	0	 	;
388	1973.5	0	 	;
389	1973.5	0	 	;
39	2093.5	0	 	;
390	1973.5	0.05	 	;
391	2006.5	0.05	 	;
392	2006.5	0	 	;
393	2006.5	0.05	 	;
394	2011.5	0.1	 	;
395	2026.5	0.05	 	;
396	2026.5	0	 	;
397	2026.5	0	 	;
398	2026.5	0	 	;
399	2026.5	0	 	;
4	2069.5	0.05	 	;
40	2089.5	0.05	 	;
400	2026.5	0	 	;
401	2030.5	0	 	;
402	2027.5	0.05	 	;
403	2026.5	0	 	;
404	2026.5	0	 	;
405	2026.5	0	 	;
406	2026.5	0.05	 	;
407	1957.5	0.05	 	;
408	2055.5	0.05	 	;
409	2055.5	0	 	;
41	2089.5	0.05	 	;
410	2055.5	0.05	 	;
411	2055.5	0	 	;
412	2055.5	0.05	 	;
413	2055.5	0.1	 	;
414	2055.5	0	 	;
415	2055.5	0	 	;
416	2055.5	0	 	;
417	2057.5	0.05	 	;
418	2057.5	0.05	 	;
419	2057.5	0	 	;
42	2026.5	0	 	;
420	2088.5	0.15	 	;
421	1906.5	0.1	 	;
422	1906.5	0	 	;
423	1906.5	0	 	;
424	1921.5	0	 	;
425	1921.5	0	 	;
426	1899.5	0	 	;
427	1896.5	0	 	;
428	1896.5	0	 	;
429	1896.5	0	 	;
43	2027.5	0	 	;
430	1896.5	0.15	 	;
431	1897.5	0	 	;
432	1897.5	0	 	;
433	1897.5	0.05	 	;
434	1911.5	0.05	 	;
435	1911.5	0.1	 	;
436	1890.5	0	 	;
437	1890.5	0	 	;
438	1890.5	0.2	 	;
439	1898.5	0.1	 	;
44	1973.5	0.05	 	;
440	1898.5	0	 	;
441	1898.5	0	 	;
442	1898.5	0.05	 	;
443	1898.5	0.05	 	;
444	1880.5	0	 	;
445	1880.5	0	 	;
446	1880.5	0.3	 	;
447	1873.5	0.6	 	;
448	1874.5	0.15	 	;
449	2052.5	0	 	;
45	1981.5	0	 	;
450	2052.5	0	 	;
451	2043.5	0.15	 	;
452	2027.5	0.05	 	;
453	2034.5	0	 	;
454	2034.5	0.15	 	;
455	2052.5	0.05	 	;
456	2049.5	0.05	 	;
457	2049.5	0	 	;
458	2049.5	0	 	;
459	2067.5	0	 	;
46	1983.5	0	 	;
460	2071.5	0	 	;
461	2071.5	0	 	;
462	2071.5	0	 	;
463	2071.5	0	 	;
464	2078.5	0.05	 	;
465	2071.5	0.05	 	;
466	2071.5	0	 	;
467	2081.5	0	 	;
468	2081.5	0.05	 	;
469	2078.5	0	 	;
47	1979.5	0	 	;
470	2078.5	0	 	;
471	2078.5	0	 	;
472	2034.5	0	 	;
473	2052.5	0	 	;
474	2034.5	0	 	;
475	2034.5	0	 	;
476	2044.5	0	 	;
477	2026.5	0	 	;
478	2026.5	0	 	;
479	2026.5	0	 	;
48	1974.5	0.05	 	;
480	2026.5	0.05	 	;
481	2026.5	0	 	;
482	2026.5	0.05	 	;
483	2026.5	0.05	 	;
484	2026.5	0	 	;
485	2026.5	0	 	;
486	2026.5	0.05	 	;
487	2052.5	0	 	;
488	2052.5	0	 	;
489	2052.5	0.05	 	;
49	1989.5	0	 	;
490	2052.5	0	 	;
491	2052.5	0.05	 	;
492	1981.5	0	 	;
493	2085.5	0.05	 	;
494	2030.5	0.1	 	;
495	2077.5	0	 	;
496	2074.5	0	 	;
497	2055.5	0	 	;
498	1953.5	0.05	 	;
499	2066.5	0	 	;
5	2039.5	0.05	 	;
50	1995.5	0.05	 	;
500	2073.5	0.1	 	;
501	2079.5	0	 	;
502	2079.5	0	 	;
503	1931.5	0	 	;
504	2073.5	0	 	;
505	2070.5	0.05	 	;
506	2048.5	0	 	;
507	2089.5	0	 	;
508	2085.5	0	 	;
509	2022.5	0.1	 	;
51	1970.5	0	 	;
510	2006.5	0.05	 	;
511	2025.5	0.1	 	;
512	2052.5	0.05	 	;
513	2123.5	0	 	;
514	2109.5	0	 	;
515	2091.5	0.05	 	;
516	2006.5	0.05	 	;
517	2006.5	0	 	;
518	2112.5	0.05	 	;
519	2119.5	0.05	 	;
52	1961.5	0.05	 	;
520	2085.5	0	 	;
521	2085.5	0	 	;
522	2034.5	0	 	;
523	1994.5	0	 	;
524	1999.5	0	 	;
525	1990.5	0	 	;
526	1970.5	0	 	;
527	1989.5	0	 	;
528	1970.5	0	 	;
529	2116.5	0	 	;
53	1957.5	0	 	;
530	2044.5	0	 	;
531	2039.5	0	 	;
532	2039.5	0.05	 	;
533	2039.5	0	 	;
534	2014.5	0.1	 	;
535	2121.5	0	 	;
536	2044.5	0.05	 	;
537	2074.5	0.05	 	;
538	2123.5	0	 	;
539	2123.5	0	 	;
54	2052.5	0	 	;
540	2119.5	0	 	;
541	2066.5	0	 	;
542	2039.5	0	 	;
543	2039.5	0.05	 	;
544	2006.5	0	 	;
545	2006.5	0	 	;
546	2006.5	0	 	;
547	1983.5	0	 	;
548	2080.5	0.05	 	;
549	2080.5	0.05	 	;
55	2088.5	0	 	;
550	2093.5	0	 	;
551	2093.5	0	 	;
552	2093.5	0	 	;
553	1873.5	0	 	;
554	2073.5	0.1	 	;
555	2079.5	0.05	 	;
556	2069.5	0.05	 	;
557	2069.5	0.05	 	;
558	2074.5	0	 	;
559	2022.5	0.15	 	;
56	2027.5	0	 	;
560	2069.5	0	 	;
561	2070.5	0	 	;
562	2070.5	0	 	;
563	2034.5	0	 	;
564	1958.5	0	 	;
565	2030.5	0	 	;
566	2030.5	0	 	;
567	1980.5	0	 	;
568	2055.5	0	 	;
569	2046.5	0	 	;
57	2010.5	0.15	 	;
570	2060.5	0	 	;
571	2044.5	0	 	;
572	2044.5	0	 	;
573	2109.5	0	 	;
574	2085.5	0	 	;
575	2055.5	0.1	 	;
576	2054.5	0	 	;
577	1989.5	0	 	;
578	2093.5	0.05	 	;
579	2093.5	0	 	;
58	2054.5	0	 	;
580	2100.5	0.05	 	;
581	2100.5	0	 	;
582	2070.5	0	 	;
583	2034.5	0	 	;
584	2070.5	0	 	;
585	2066.5	0.05	 	;
586	2055.5	0.05	 	;
587	2048.5	0.1	 	;
588	2048.5	0.05	 	;
589	2048.5	0	 	;
59	2112.5	0.15	 	;
590	2048.5	0	 	;
591	2048.5	0	 	;
592	2044.5	0	 	;
593	2044.5	0	 	;
594	2044.5	0	 	;
595	2044.5	0.05	 	;
596	2034.5	0	 	;
597	2034.5	0.05	 	;
598	2060.5	0	 	;
599	2060.5	0	 	;
6	2112.5	0	 	;
60	2112.5	0	 	;
600	2065.5	0.05	 	;
601	2026.5	0	 	;
602	2086.5	0.15	 	;
603	2025.5	0	 	;
604	2042.5	0.05	 	;
605	2042.5	0	 	;
606	2042.5	0	 	;
607	2042.5	0	 	;
608	2042.5	0	 	;
609	2043.5	0	 	;
61	2112.5	0	 	;
610	2043.5	0	 	;
611	2043.5	0.05	 	;
612	1972.5	0	 	;
613	1972.5	0	 	;
614	1972.5	0	 	;
615	1972.5	0	 	;
616	1972.5	0	 	;
617	1972.5	0	 	;
618	1972.5	0	 	;
619	2080.5	0	 	;
62	2034.5	0	 	;
620	2026.5	0	 	;
621	2026.5	0	 	;
622	2026.5	0	 	;
623	2026.5	0	 	;
624	2065.5	0	 	;
625	2065.5	0	 	;
626	2065.5	0	 	;
627	2066.5	0	 	;
628	2055.5	0.05	 	;
629	2060.5	0.35	 	;
63	2088.5	0.05	 	;
630	1989.5	0.05	 	;
631	1989.5	0	 	;
632	1982.5	0	 	;
633	1989.5	0.15	 	;
634	1973.5	0	 	;
635	1873.5	0.15	 	;
636	1880.5	0.05	 	;
637	1880.5	0	 	;
638	1880.5	0	 	;
639	1898.5	0.05	 	;
64	2105.5	0	 	;
640	1898.5	0.1	 	;
641	1898.5	0.05	 	;
642	1898.5	0	 	;
643	1898.5	0	 	;
644	1890.5	0.25	 	;
645	1890.5	0.05	 	;
646	1911.5	0	 	;
647	1911.5	0	 	;
648	1911.5	0	 	;
649	1911.5	0	 	;
65	2109.5	0	 	;
650	1911.5	0	 	;
651	1911.5	0	 	;
652	1920.5	0	 	;
653	1920.5	0	 	;
654	1920.5	0	 	;
655	1920.5	0.1	 	;
656	1920.5	0	 	;
657	1921.5	0.05	 	;
658	1921.5	0	 	;
659	1921.5	0.05	 	;
66	2109.5	0.05	 	;
660	1921.5	0.05	 	;
661	1912.5	0.1	 	;
662	1912.5	0	 	;
663	1912.5	0	 	;
664	1912.5	0	 	;
665	1906.5	0	 	;
666	1931.5	0	 	;
667	1931.5	0	 	;
668	1931.5	0	 	;
669	1931.5	0	 	;
67	2109.5	0	 	;
670	1922.5	0.05	 	;
671	1922.5	0	 	;
672	1922.5	0.15	 	;
673	1922.5	0	 	;
674	1925.5	0	 	;
675	1925.5	0.05	 	;
676	1925.5	0.05	 	;
677	1958.5	0.05	 	;
678	1958.5	0	 	;
679	1958.5	0.1	 	;
68	2109.5	0.05	 	;
680	1958.5	0	 	;
681	1958.5	0	 	;
682	1976.5	0.1	 	;
683	1976.5	0.05	 	;
684	1976.5	0.05	 	;
685	1976.5	0.05	 	;
686	1958.5	0.15	 	;
687	1981.5	0	 	;
688	1981.5	0	 	;
689	1981.5	0	 	;
69	1990.5	0.05	 	;
690	1981.5	0	 	;
691	1981.5	0.05	 	;
692	1958.5	0	 	;
693	1958.5	0	 	;
694	1958.5	0.05	 	;
695	1958.5	0	 	;
696	2052.5	0	 	;
697	2052.5	0	 	;
698	2049.5	0	 	;
699	2049.5	0	 	;
7	1985.5	0.05	 	;
70	2100.5	0	 	;
700	2026.5	0	 	;
701	2026.5	0	 	;
702	2026.5	0	 	;
703	2026.5	0	 	;
704	2026.5	0	 	;
705	2026.5	0	 	;
706	2026.5	0	 	;
707	2026.5	0	 	;
708	2094.5	0	 	;
709	2094.5	0.05	 	;
71	2070.5	0	 	;
710	2089.5	0.05	 	;
711	2105.5	0	 	;
712	2109.5	0	 	;
713	2106.5	0	 	;
714	2106.5	0	 	;
715	2121.5	0	 	;
716	2091.5	0	 	;
717	2085.5	0	 	;
718	2065.5	0.05	 	;
719	2065.5	0	 	;
72	2070.5	0	 	;
720	2065.5	0	 	;
721	2065.5	0	 	;
722	2065.5	0	 	;
723	2103.5	0.1	 	;
724	2105.5	0.05	 	;
725	2105.5	0	 	;
726	2112.5	0	 	;
727	2077.5	0	 	;
728	2077.5	0.05	 	;
729	2068.5	0.05	 	;
73	2046.5	0	 	;
730	2068.5	0	 	;
731	2068.5	0	 	;
732	2074.5	0	 	;
733	2074.5	0.05	 	;
734	2091.5	0	 	;
735	2094.5	0.05	 	;
736	2094.5	0	 	;
737	2093.5	0	 	;
738	1995.5	0	 	;
739	1995.5	0	 	;
74	2002.5	0	 	;
740	1995.5	0	 	;
741	2015.5	0	 	;
742	1981.5	0.25	 	;
743	1995.5	0.15	 	;
744	1972.5	0	 	;
745	1972.5	0	 	;
746	1972.5	0	 	;
747	1972.5	0	 	;
748	1972.5	0	 	;
749	1972.5	0	 	;
75	2073.5	0.1	 	;
750	1972.5	0	 	;
751	1972.5	0	 	;
752	1972.5	0	 	;
753	1972.5	0	 	;
754	1958.5	0.05	 	;
755	1958.5	0	 	;
756	1958.5	0	 	;
757	1958.5	0.05	 	;
758	1958.5	0	 	;
759	1972.5	0.05	 	;
76	2006.5	0.05	 	;
760	1972.5	0	 	;
761	1972.5	0	 	;
762	1972.5	0	 	;
763	1972.5	0	 	;
764	1972.5	0	 	;
765	1972.5	0	 	;
766	1972.5	0	 	;
767	1972.5	0	 	;
768	1995.5	0.05	 	;
769	1995.5	0	 	;
77	2048.5	0	 	;
770	1995.5	0.05	 	;
771	1981.5	0	 	;
772	1981.5	0	 	;
773	1981.5	0	 	;
774	2003.5	0	 	;
775	2003.5	0	 	;
776	2003.5	0.05	 	;
777	2003.5	0	 	;
778	1995.5	0	 	;
779	1995.5	0	 	;
78	1972.5	0	 	;
780	1995.5	0	 	;
781	1995.5	0	 	;
782	1995.5	0	 	;
783	1995.5	0	 	;
784	1995.5	0	 	;
785	1995.5	0	 	;
786	1995.5	0	 	;
787	1995.5	0	 	;
788	1995.5	0	 	;
789	1995.5	0	 	;
79	1970.5	0	 	;
790	1995.5	0	 	;
791	1995.5	0	 	;
792	2034.5	0	 	;
793	2034.5	0	 	;
794	2034.5	0	 	;
795	2034.5	0	 	;
796	2034.5	0	 	;
797	2034.5	0	 	;
798	2034.5	0	 	;
799	2034.5	0	 	;
8	2048.5	0	 	;
80	2064.5	0.15	 	;
800	2034.5	0	 	;
801	2034.5	0	 	;
802	2034.5	0	 	;
803	2034.5	0	 	;
804	2034.5	0	 	;
805	2034.5	0	 	;
806	2034.5	0	 	;
807	1994.5	0.05	 	;
808	1994.5	0	 	;
809	2006.5	0.05	 	;
81	2106.5	0	 	;
810	2006.5	0.05	 	;
811	2080.5	0.1	 	;
812	2083.5	0.05	 	;
813	2075.5	0.05	 	;
814	2086.5	0	 	;
815	2086.5	0.05	 	;
816	2079.5	0	 	;
817	2079.5	0	 	;
818	2086.5	0	 	;
819	2080.5	0	 	;
82	2105.5	0	 	;
820	2088.5	0	 	;
821	2079.5	0	 	;
822	2086.5	0	 	;
823	2079.5	0.05	 	;
824	2084.5	0.05	 	;
825	2085.5	0.05	 	;
826	2091.5	0	 	;
827	2100.5	0.05	 	;
828	2100.5	0	 	;
829	2105.5	0	 	;
83	2112.5	0	 	;
830	2109.5	0	 	;
831	2119.5	0	 	;
832	1999.5	0	 	;
833	1999.5	0	 	;
834	1999.5	0	 	;
835	2002.5	0	 	;
836	2002.5	0	 	;
837	2002.5	0	 	;
838	2002.5	0	 	;
839	2002.5	0.05	 	;
84	2105.5	0	 	;
840	2003.5	0	 	;
841	2003.5	0	 	;
842	2003.5	0	 	;
843	2003.5	0	 	;
844	2003.5	0	 	;
845	2003.5	0	 	;
846	2006.5	0.05	 	;
847	2006.5	0	 	;
848	2006.5	0	 	;
849	2009.5	0	 	;
85	2105.5	0	 	;
850	2009.5	0.05	 	;
851	2009.5	0	 	;
852	2009.5	0	 	;
853	2025.5	0	 	;
854	2025.5	0	 	;
855	2025.5	0	 	;
856	2025.5	0	 	;
857	2025.5	0.15	 	;
858	2025.5	0	 	;
859	2016.5	0.15	 	;
86	2105.5	0.05	 	;
860	1931.5	0	 	;
861	1931.5	0	 	;
862	1931.5	0	 	;
863	1906.5	0	 	;
864	1896.5	0	 	;
865	1896.5	0	 	;
866	1920.5	0	 	;
867	1920.5	0	 	;
868	1920.5	0	 	;
869	1920.5	0	 	;
87	2046.5	0	 	;
870	2067.5	0	 	;
871	2073.5	0	 	;
872	1873.5	0.05	 	;
873	1873.5	0.1	 	;
874	1873.5	0.05	 	;
875	1873.5	0.05	 	;
876	1952.5	0	 	;
877	1952.5	0	 	;
878	1952.5	0.05	 	;
879	1970.5	0.1	 	;
88	2064.5	0.1	 	;
880	1970.5	0.1	 	;
881	1970.5	0	 	;
882	1970.5	0.1	 	;
883	1967.5	0.15	 	;
884	1967.5	0	 	;
885	1967.5	0	 	;
886	1967.5	0	 	;
887	1979.5	0	 	;
888	1979.5	0	 	;
889	1979.5	0	 	;
89	1970.5	0.05	 	;
890	1979.5	0.05	 	;
891	1987.5	0	 	;
892	1987.5	0	 	;
893	1987.5	0	 	;
894	1987.5	0	 	;
895	1983.5	0	 	;
896	1983.5	0	 	;
897	1983.5	0	 	;
898	1983.5	0	 	;
899	1983.5	0	 	;
9	2088.5	0	 	;
90	2051.5	0	 	;
900	1983.5	0	 	;
901	1990.5	0.05	 	;
902	1990.5	0	 	;
903	1990.5	0	 	;
904	1990.5	0	 	;
905	1989.5	0.05	 	;
906	1983.5	0	 	;
907	1983.5	0	 	;
908	1983.5	0	 	;
909	1988.5	0	 	;
91	2055.5	0.15	 	;
910	1988.5	0	 	;
911	1989.5	0.05	 	;
912	1989.5	0	 	;
913	1989.5	0	 	;
914	1989.5	0.05	 	;
915	1989.5	0	 	;
916	1998.5	0	 	;
917	1998.5	0	 	;
918	1995.5	0	 	;
919	1995.5	0	 	;
92	2073.5	0.1	 	;
920	1995.5	0.1	 	;
921	1999.5	0.05	 	;
922	1999.5	0	 	;
923	2081.5	0	 	;
924	2030.5	0	 	;
925	1979.5	0.05	 	;
926	1979.5	0	 	;
927	1979.5	0	 	;
928	1987.5	0.05	 	;
929	1987.5	0	 	;
93	2079.5	0.25	 	;
930	1987.5	0	 	;
931	1987.5	0	 	;
932	1987.5	0	 	;
933	1980.5	0.05	 	;
934	1980.5	0	 	;
935	1980.5	0.1	 	;
936	1987.5	0	 	;
937	1983.5	0	 	;
938	1983.5	0.1	 	;
939	1983.5	0	 	;
94	2079.5	0	 	;
940	1980.5	0	 	;
941	1986.5	0	 	;
942	1986.5	0	 	;
943	1982.5	0.05	 	;
944	1923.5	0.45	 	;
945	1952.5	0.1	 	;
946	1979.5	0.05	 	;
947	1979.5	0	 	;
948	1976.5	0.05	 	;
949	1977.5	0	 	;
95	2070.5	0	 	;
950	1973.5	0.1	 	;
951	1974.5	0	 	;
952	1974.5	0	 	;
953	1974.5	0	 	;
954	1974.5	0	 	;
955	1965.5	0.05	 	;
956	1965.5	0	 	;
957	1963.5	0.05	 	;
958	1963.5	0	 	;
959	1963.5	0	 	;
96	2070.5	0	 	;
960	1963.5	0	 	;
961	1963.5	0.1	 	;
962	1964.5	0	 	;
963	1964.5	0	 	;
964	1964.5	0	 	;
965	1964.5	0	 	;
966	1964.5	0	 	;
967	1964.5	0.05	 	;
968	1970.5	0	 	;
969	1972.5	0	 	;
97	2065.5	0	 	;
970	1972.5	0	 	;
971	1972.5	0.1	 	;
972	1972.5	0	 	;
973	1972.5	0	 	;
974	1941.5	0	 	;
975	1941.5	0	 	;
976	1941.5	0	 	;
977	1941.5	0.1	 	;
978	1941.5	0.1	 	;
979	1941.5	0	 	;
98	2003.5	0	 	;
980	1941.5	0	 	;
981	1941.5	0.05	 	;
982	1941.5	0.05	 	;
983	1941.5	0	 	;
984	1931.5	0	 	;
985	1931.5	0	 	;
986	1931.5	0	 	;
987	1931.5	0.05	 	;
988	1931.5	0	 	;
989	1977.5	0	 	;
99	1983.5	0	 	;
990	1973.5	0	 	;
991	1973.5	0.05	 	;
992	1966.5	0.15	 	;
993	1966.5	0	 	;
994	1964.5	0.05	 	;
995	1979.5	0.15	 	;
996	1967.5	0.05	 	;
997	1977.5	0	 	;
998	1977.5	0.05	 	;
999	1983.5	0	 	;

[RESERVOIRS]
;ID	Head	Pattern
1414	2186	 	;

[TANKS]
;ID	Elevation	InitLevel	MinLevel	MaxLevel	Diameter	MinVol	VolCurve

[PIPES]
;ID	Node1	Node2	Length	Diameter	Roughness	MinorLoss	Status
1415	47	1106	8.96	76.2	0.0015	0	Open	;
1416	495	496	29.07	101.6	0.0015	0	Open	;
1417	1341	1342	12.91	76.2	0.0015	0	Open	;
1418	1314	1317	62.92	101.6	0.0015	0	Open	;
1419	39	142	35.44	76.2	0.0015	0	Open	;
1420	1168	1169	4.62	254	0.0015	0	Open	;
1421	823	123	65.85	355.6	0.0015	0	Open	;
1422	171	730	35.77	76.2	0.0015	0	Open	;
1423	142	143	115.24	254	0.0015	0	Open	;
1424	143	13	5.69	101.6	0.0015	0	Open	;
1425	1342	718	19.35	76.2	0.0015	0	Open	;
1426	496	497	46.2	76.2	0.0015	0	Open	;
1427	497	21	70.67	152.4	0.0015	0	Open	;
1428	21	22	33.68	609.6	0.0015	0	Open	;
1429	183	184	42.64	304.8	0.0015	0	Open	;
1430	184	28	52.5	76.2	0.0015	0	Open	;
1431	28	29	13.53	152.4	0.0015	0	Open	;
1432	501	502	40.41	76.2	0.0015	0	Open	;
1433	460	461	23.04	508	0.0015	0	Open	;
1434	154	53	7.66	76.2	0.0015	0	Open	;
1435	568	38	61.01	152.4	0.0015	0	Open	;
1436	18	66	96.68	304.8	0.0015	0	Open	;
1437	1254	1255	9.63	76.2	0.0015	0	Open	;
1438	1251	1252	8.37	508	0.0015	0	Open	;
1439	1252	309	18.01	304.8	0.0015	0	Open	;
1440	427	864	9.13	152.4	0.0015	0	Open	;
1441	79	16	14.76	152.4	0.0015	0	Open	;
1442	16	89	13.71	152.4	0.0015	0	Open	;
1443	89	51	14.13	203.2	0.0015	0	Open	;
1444	51	111	13.48	101.6	0.0015	0	Open	;
1445	111	52	33.58	152.4	0.0015	0	Open	;
1446	1177	1178	4.68	76.2	0.0015	0	Open	;
1447	356	9	40.6	76.2	0.0015	0	Open	;
1448	453	454	38.25	152.4	0.0015	0	Open	;
1449	157	158	48.52	101.6	0.0015	0	Open	;
1450	529	59	90.52	76.2	0.0015	0	Open	;
1451	151	60	51.07	76.2	0.0015	0	Open	;
1452	86	64	7.06	76.2	0.0015	0	Open	;
1453	64	65	25.52	76.2	0.0015	0	Open	;
1454	105	67	93.05	152.4	0.0015	0	Open	;
1455	622	35	5.26	76.2	0.0015	0	Open	;
1456	561	562	35.82	152.4	0.0015	0	Open	;
1457	562	71	15.56	152.4	0.0015	0	Open	;
1458	71	72	8.14	76.2	0.0015	0	Open	;
1459	922	32	19.3	76.2	0.0015	0	Open	;
1460	921	33	27.83	76.2	0.0015	0	Open	;
1461	181	378	33.42	76.2	0.0015	0	Open	;
1462	588	77	28.68	76.2	0.0015	0	Open	;
1463	519	518	76.65	76.2	0.0015	0	Open	;
1464	345	924	35.97	152.4	0.0015	0	Open	;
1465	52	53	99.07	76.2	0.0015	0	Open	;
1466	81	82	98.23	152.4	0.0015	0	Open	;
1467	83	84	97.48	76.2	0.0015	0	Open	;
1468	84	85	42.4	76.2	0.0015	0	Open	;
1469	85	86	15.79	76.2	0.0015	0	Open	;
1470	73	146	38.21	76.2	0.0015	0	Open	;
1471	146	88	37.47	76.2	0.0015	0	Open	;
1472	543	90	78.75	76.2	0.0015	0	Open	;
1473	506	91	93.02	76.2	0.0015	0	Open	;
1474	41	131	42.45	76.2	0.0015	0	Open	;
1475	93	126	34.95	76.2	0.0015	0	Open	;
1476	126	94	9.44	152.4	0.0015	0	Open	;
1477	94	95	36.41	152.4	0.0015	0	Open	;
1478	95	96	20.34	76.2	0.0015	0	Open	;
1479	96	97	68.03	76.2	0.0015	0	Open	;
1480	276	258	12.36	76.2	0.0015	0	Open	;
1481	123	124	37.92	76.2	0.0015	0	Open	;
1482	124	100	33.38	76.2	0.0015	0	Open	;