[TITLE]

[JUNCTIONS]
;ID	Elev	Demand	Pattern
1	2.9	10.01	 	;
10	5.2	16.4	 	;
11	28	29.77	 	;
12	3.2	0.49	 	;
13	3.2	7.49	 	;
14	19.2	6.06	 	;
17	4	2.77	 	;
18	3.5	5.03	 	;
19	2.8	4.81	 	;
2	5	12.43	 	;
20	2.7	21.04	 	;
21	1.8	16.94	 	;
22	2.1	10.41	 	;
23	2	2.17	 	;
24	18.7	6.55	 	;
25	3.2	10.41	 	;
26	1.6	2.78	 	;
27	3.8	5.32	 	;
28	4.3	3.63	 	;
29	3.6	33	 	;
3	3.5	8.5	 	;
30	3.2	6	 	;
31	2.8	6.4	 	;
32	1.8	2.96	 	;
33	3.8	3.09	 	;
34	2.9	3.09	 	;
35	3.7	8.79	 	;
36	2.1	1.68	 	;
37	6.7	12.64	 	;
38	6.7	12.64	 	;
39	4.2	12.64	 	;
4	3.8	8.5	 	;
40	2.9	5.56	 	;
41	2.9	2.6	 	;
42	28.5	4.57	 	;
44	27.3	7.56	 	;
45	1.1	6.21	 	;
46	2.5	3.09	 	;
47	2.8	0.59	 	;
48	3.3	12.63	 	;
49	1.8	3.41	 	;
5	2.2	12.12	 	;
50	1.8	13.21	 	;
51	1.6	3.87	 	;
52	1.8	6.43	 	;
53	1.6	2.55	 	;
54	3.3	0	 	;
55	2.5	11.3	 	;
56	2.8	3.99	 	;
57	3.2	7.75	 	;
58	3.6	1.91	 	;
59	3.8	0.88	 	;
6	7	1.63	 	;
60	3.1	5.14	 	;
61	3	5.14	 	;
62	4.2	7.44	 	;
7	6.5	0	 	;
76	4.2	0	 	;
8	5.2	33.6	 	;
82	2.1	0.01	 	;
83	2.1	0	 	;
84	3.3	0.54	 	;
85	2.1	0.37	 	;
86	1.5	6.46	 	;
87	19.2	25	 	;
88	2.1	2.15	 	;
89	1.5	1.75	 	;
9	4.3	4.38	 	;

[RESERVOIRS]
;ID	Head	Pattern
15	57	 	;
43	53.08	 	;
65	55	 	;

[TANKS]
;ID	Elevation	InitLevel	MinLevel	MaxLevel	Diameter	MinVol	VolCurve

[PIPES]
;ID	Node1	Node2	Length	Diameter	Roughness	MinorLoss	Status
1	1	2	977.36	200	0.0015	0	Open	;
100	54	84	180	250	0.0015	0	Open	;
102	83	85	240	450	0.0015	0	Open	;
103	43	87	10	100	0.0015	0	Open	;
104	55	89	179.54	450	0.0015	0	Open	;
105	89	53	331.4	125	0.0015	0	Open	;
106	55	88	332.35	300	0.0015	0	Open	;
107	88	51	325.03	500	0.0015	0	Open	;
108	84	88	113.35	350	0.0015	0	Open	;
109	88	89	150.82	350	0.0015	0	Open	;
11	15	14	43.97	150	0.0015	0	Open	;
110	55	86	165.43	300	0.0015	0	Open	;
12	13	17	589.16	250	0.0015	0	Open	;
13	18	13	618.53	200	0.0015	0	Open	;
14	18	19	341.1	125	0.0015	0	Open	;
15	20	18	341.92	200	0.0015	0	Open	;
16	21	20	434.24	300	0.0015	0	Open	;
17	22	23	240.59	300	0.0015	0	Open	;
18	24	25	957.44	600	0.0015	0	Open	;
19	14	24	171.04	600	0.0015	0	Open	;
2	3	4	443.17	200	0.0015	0	Open	;
20	24	17	235.57	800	0.0015	0	Open	;
21	26	17	3.59	700	0.0015	0	Open	;
22	26	27	324.36	125	0.0015	0	Open	;
24	21	22	749.74	250	0.0015	0	Open	;
25	23	21	639.7	450	0.0015	0	Open	;
26	27	23	422.95	350	0.0015	0	Open	;
27	20	27	843.52	600	0.0015	0	Open	;
28	19	20	609.23	400	0.0015	0	Open	;
29	28	29	179.04	600	0.0015	0	Open	;
3	3	5	1410.77	200	0.0015	0	Open	;
30	28	30	570.9	200	0.0015	0	Open	;
31	30	28	575.73	250	0.0015	0	Open	;
32	31	32	250.28	200	0.0015	0	Open	;
33	30	33	442.11	250	0.0015	0	Open	;
34	34	30	762.35	250	0.0015	0	Open	;
35	35	36	1124.9	400	0.0015	0	Open	;
36	31	11	1903.75	450	0.0015	0	Open	;
37	37	31	125.51	400	0.0015	0	Open	;
38	37	38	121.27	500	0.0015	0	Open	;
39	19	38	55.32	250	0.0015	0	Open	;
4	3	1	269.61	100	0.0015	0	Open	;
41	40	39	424.86	450	0.0015	0	Open	;
42	40	41	72.8	150	0.0015	0	Open	;
43	9	40	554.08	350	0.0015	0	Open	;
44	33	9	305.53	125	0.0015	0	Open	;
45	41	33	568.35	100	0.0015	0	Open	;
46	34	41	63.81	200	0.0015	0	Open	;
47	39	34	310.76	600	0.0015	0	Open	;
48	12	39	1217.17	800	0.0015	0	Open	;
49	25	12	365.82	700	0.0015	0	Open	;
5	6	7	116.52	700	0.0015	0	Open	;
50	35	25	1408.33	250	0.0015	0	Open	;
51	29	35	33.25	350	0.0015	0	Open	;
52	8	29	720.9	250	0.0015	0	Open	;
53	42	11	441.69	800	0.0015	0	Open	;
54	43	42	332.99	500	0.0015	0	Open	;
55	44	42	229.85	600	0.0015	0	Open	;
56	45	46	500.92	200	0.0015	0	Open	;
57	47	48	232.07	200	0.0015	0	Open	;
58	32	49	5.43	500	0.0015	0	Open	;
59	46	32	66.24	350	0.0015	0	Open	;
6	6	8	203.06	200	0.0015	0	Open	;
60	50	46	232.13	700	0.0015	0	Open	;
61	49	50	154.78	700	0.0015	0	Open	;
62	48	49	645.1	400	0.0015	0	Open	;
63	51	48	157.87	350	0.0015	0	Open	;
64	50	51	645.79	300	0.0015	0	Open	;
65	52	50	206.69	450	0.0015	0	Open	;
66	51	53	156.75	400	0.0015	0	Open	;
68	54	55	152.81	600	0.0015	0	Open	;
7	9	6	2309.14	400	0.0015	0	Open	;
70	56	47	52.37	250	0.0015	0	Open	;
71	44	57	394.67	600	0.0015	0	Open	;
72	56	44	774.69	700	0.0015	0	Open	;
73	57	56	435.58	300	0.0015	0	Open	;
74	58	57	899.67	600	0.0015	0	Open	;
75	59	60	198.5	500	0.0015	0	Open	;
76	55	61	1116.15	300	0.0015	0	Open	;
78	52	53	631.8	150	0.0015	0	Open	;
79	45	52	350.97	250	0.0015	0	Open	;
8	10	11	1479.98	700	0.0015	0	Open	;
81	61	5	226.03	800	0.0015	0	Open	;
82	60	61	186.77	300	0.0015	0	Open	;
83	58	60	337.24	125	0.0015	0	Open	;
84	62	58	173.09	300	0.0015	0	Open	;
85	62	2	784.45	125	0.0015	0	Open	;
86	59	62	86.39	450	0.0015	0	Open	;
87	4	59	732.93	400	0.0015	0	Open	;
88	2	4	193.78	150	0.0015	0	Open	;
89	65	6	1744.27	125	0.0015	0	Open	;
90	65	76	154.18	300	0.0015	0	Open	;
92	86	45	1635.69	300	0.0015	0	Open	;
93	76	8	1072.69	150	0.0015	0	Open	;
94	82	83	5	350	0.0015	0	Open	;
95	82	85	240.05	100	0.0015	0	Open	;
96	22	85	841.63	450	0.0015	0	Open	;
97	26	83	601.58	600	0.0015	0	Open	;
98	5	86	1600	400	0.0015	0	Open	;

[PUMPS]
;ID	Node1	Node2	Parameters

[VALVES]
;ID	Node1	Node2	Diameter	Type	Setting	MinorLoss

[TAGS]

[DEMANDS]
;Junction	Demand	Pattern	Category

[STATUS]
;ID	Status/Setting

[PATTERNS]
;ID	M1	M2	M3	M4	M5	M6

[CURVES]
;ID	X-Value	Y-Value

[CONTROLS]

[RULES]

[ENERGY]
Global Efficiency	75
Global Price	0
Demand Charge	0

[EMITTERS]
;Junction	Coefficient
1	0	;
10	0	;
11	0	;
12	0	;
13	0	;
14	0	;
17	0	;
18	0	;
19	0	;
2	0	;
20	0	;
21	0	;
22	0	;
23	0	;
24	0	;
25	0	;
26	0	;
27	0	;
28	0	;
29	0	;
3	0	;
30	0	;
31	0	;
32	0	;
33	0	;
34	0	;
35	0	;
36	0	;
37	0	;
38	0	;
39	0	;
4	0	;
40	0	;
41	0	;
42	0	;
44	0	;
45	0	;
46	0	;
47	0	;
48	0	;
49	0	;
5	0	;
50	0	;
51	0	;
52	0	;
53	0	;
54	0	;
55	0	;
56	0	;
57	0	;
58	0	;
59	0	;
6	0	;
60	0	;
61	0	;
62	0	;
7	0	;
76	0	;
8	0	;
82	0	;
83	0	;
84	0	;
85	0	;
86	0	;
87	0	;
88	0	;
89	0	;
9	0	;

[QUALITY]
;Node	InitQual

[SOURCES]
;Node	Type	Quality	Pattern

[REACTIONS]
Order Bulk	1
Order Tank	1
Order Wall	1
Global Bulk	0
Global Wall	0
Limiting Potential	0

[REACTIONS]
;Var	Value

[MIXING]
;Tank	Model

[TIMES]
;Var	Value
Duration	00:15
Pattern Timestep	01:00
Hydraulic Timestep	01:00
Quality Timestep	0:05
Pattern Start	12:00
Report Timestep	01:00
Report Start	12:00
Start ClockTime	12:00
Statistic	None

[REPORT]
;Var	Value
Status	No
Summary	No
Page	0

[OPTIONS]
Units	LPS
HeadLoss	D-W
Specific Gravity	1
Viscosity	1
Trials	1000
Accuracy	0.001
Unbalanced	Continue 10
Pattern	1
Demand Multiplier	1
Emitter Exponent	0.5
Quality	None mg/L
Diffusivity	1
Tolerance	0.01

[COORDINATES]
;Node	X-Coord	Y-Coord
1	656582.88	963296.25
10	659947.69	961952.63
11	659120.75	962107.19
12	661689.69	962215.25
13	661623.88	962717.69
14	662482.81	962917.75
15	662492.56	962874.81
17	662131.88	963005.56
18	661006.88	962760.81
19	660673.44	962792.06
2	657289.06	963069.5
20	661012	963102.44
21	661221.06	963474.69
22	661856.94	963711.13
23	661860.75	963473.88
24	662326	962957.19
25	662031.81	962086.69
26	662135.06	963007.19
27	661853.69	963051
28	661141.5	961352.25
29	661319.63	961368.81
3	656852.19	963283.19
30	660878.69	961712.13
31	660390.13	962876.63
32	660381.19	963121
33	660557.31	961781.06
34	660596.63	962340.81
35	661308	961400
36	660857.63	962345.56
37	660500.44	962822.94
38	660618.31	962796.5
39	660651.25	962646.69
4	657294.63	963262.25
40	660461.31	962359.19
41	660533.31	962348.81
42	659046.31	962535.19
43	658738.69	962454.75
44	659015	962761.75
45	660704.56	963432.5
46	660447.38	963119.13
47	659504.06	963179.19
48	659732.88	963154.94
49	660377.06	963121.75
5	657933.44	963588.94
50	660375.88	963276.44
51	659734.19	963310.88
52	660371.38	963483.06
53	659739.94	963467.5
54	659230.13	963333.94
55	659229.19	963481.63
56	659457.44	963155.31
57	659097.25	963096.19
58	658198.44	963134.44
59	658026.94	963233.88
6	661346.75	960658.38
60	658114.75	963350.06
61	658119.75	963536.75
62	658025.81	963147.5
65	662568.19	960492.44
7	661252.19	960607.19
76	662523.13	960626.31
8	661547.63	960688.13
82	662454	963567.13
83	662458.63	963565.25
84	659408.69	963212.44
85	662548.06	963787.94
86	659408.69	963642.06
87	658728.69	962454.75
88	659408.69	963325.81
89	659408.69	963476.63
9	660262.19	961842.69

[VERTICES]
;Link	X-Coord	Y-Coord

[LABELS]
;X-Coord	Y-Coord	Label & Anchor Nodo

[BACKDROP]
;Var	Val1	Val2	Val3	Val4

[END]

