[TITLE]

[JUNCTIONS]
;ID	Elev	Demand	Pattern
1	121.5	0.15	 	;
10	118.5	0.05	 	;
100	119.5	0	 	;
101	119.5	0.05	 	;
102	120.5	0.05	 	;
103	110.5	0.4	 	;
104	110.5	0.05	 	;
105	110.5	0.1	 	;
106	114.5	0	 	;
107	114.5	0	 	;
108	114.5	0	 	;
109	114.5	0	 	;
11	112.5	0.1	 	;
110	113.5	0.05	 	;
111	117.5	0	 	;
112	117.5	0.05	 	;
113	118.5	0	 	;
114	118.5	0.05	 	;
115	121.5	0.1	 	;
116	120.5	0.15	 	;
117	119.5	0.2	 	;
118	118.5	0.35	 	;
119	118.5	0.05	 	;
12	118.5	0.05	 	;
120	121.5	0	 	;
121	110.5	0	 	;
122	112.5	0	 	;
123	114.5	0.05	 	;
124	118.5	0.1	 	;
125	118.5	0.1	 	;
126	117.5	0.4	 	;
127	116.5	0.25	 	;
128	115.5	0.2	 	;
129	112.5	0	 	;
13	119.5	0	 	;
130	109.5	0	 	;
131	109.5	0.05	 	;
132	108.5	0	 	;
133	108.5	0.05	 	;
134	108.5	0	 	;
135	108.5	0	 	;
136	108.5	0.15	 	;
137	111.5	0.2	 	;
138	111.5	0.05	 	;
139	111.5	0.05	 	;
14	121.5	0.1	 	;
140	111.5	0.1	 	;
141	112.5	0.2	 	;
142	112.5	0.2	 	;
143	112.5	0.05	 	;
144	112.5	0	 	;
145	112.5	0.15	 	;
146	113.5	0.15	 	;
147	117.5	0.15	 	;
148	121.5	0.1	 	;
149	104.5	0	 	;
15	123.5	0.05	 	;
150	104.5	0	 	;
151	104.5	0.25	 	;
152	104.5	0	 	;
153	99.5	0	 	;
154	99.5	0	 	;
155	99.5	0.35	 	;
156	99.5	0.05	 	;
157	106.5	0.05	 	;
158	106.5	0.1	 	;
159	106.5	0	 	;
16	120.5	0.15	 	;
160	102.5	0.1	 	;
161	110.5	0	 	;
162	110.5	0.05	 	;
163	109.5	0.05	 	;
164	109.5	0.05	 	;
165	107.5	0	 	;
166	107.5	0	 	;
167	112.5	0.05	 	;
168	110.5	0.1	 	;
169	105.5	0.15	 	;
17	111.5	0.2	 	;
170	105.5	0	 	;
171	105.5	0	 	;
172	112.5	0.05	 	;
173	112.5	0	 	;
174	112.5	0	 	;
175	112.5	0	 	;
176	106.5	0	 	;
177	103.5	0.05	 	;
178	103.5	0.35	 	;
179	121.5	0.15	 	;
18	114.5	0.1	 	;
180	115.5	0.3	 	;
181	117.5	0.45	 	;
182	117.5	0	 	;
183	117.5	0	 	;
184	117.5	0	 	;
185	117.5	0	 	;
186	117.5	0	 	;
187	117.5	0.05	 	;
188	117.5	0.05	 	;
189	111.5	0	 	;
19	109.5	0.15	 	;
190	111.5	0.2	 	;
191	105.5	0.05	 	;
192	115.5	0.05	 	;
193	115.5	0.05	 	;
194	115.5	0.05	 	;
195	109.5	0	 	;
196	100.5	0.4	 	;
197	103.5	0.2	 	;
198	104.5	0.4	 	;
199	107.5	0.75	 	;
2	116.5	0	 	;
20	119.5	0.1	 	;
200	109.5	0.3	 	;
201	109.5	0.25	 	;
202	115.5	0.15	 	;
203	115.5	0	 	;
204	117.5	0.1	 	;
205	113.5	0.05	 	;
206	114.5	0	 	;
207	110.5	0.1	 	;
208	103.5	0	 	;
209	103.5	0.1	 	;
21	109.5	0.05	 	;
210	111.5	0	 	;
211	105.5	0	 	;
212	105.5	0	 	;
213	105.5	0.05	 	;
214	105.5	0	 	;
215	105.5	0	 	;
216	108.5	0.1	 	;
217	111.5	0.1	 	;
218	104.5	0.1	 	;
219	116.5	0	 	;
22	103.5	0.25	 	;
220	116.5	0.05	 	;
221	116.5	0	 	;
222	116.5	0.05	 	;
223	115.5	0.1	 	;
224	116.5	0.1	 	;
225	116.5	0.4	 	;
226	116.5	0.3	 	;
227	120.5	0	 	;
228	120.5	0	 	;
229	120.5	0	 	;
23	121.5	0.1	 	;
230	118.5	0.05	 	;
231	111.5	0.5	 	;
232	119.5	0.1	 	;
233	119.5	0.25	 	;
234	113.5	0.8	 	;
235	123.5	0.1	 	;
236	114.5	0	 	;
237	112.5	0.05	 	;
238	110.5	0.1	 	;
239	110.5	0	 	;
24	121.5	0.2	 	;
240	110.5	0	 	;
241	110.5	0.1	 	;
242	108.5	0	 	;
243	104.5	0.55	 	;
244	104.5	0	 	;
245	110.5	0.8	 	;
246	118.5	0.75	 	;
247	118.5	0.25	 	;
248	116.5	0.1	 	;
249	118.5	0.35	 	;
25	118.5	0.05	 	;
250	119.5	0.1	 	;
251	119.5	0.5	 	;
252	121.5	0.6	 	;
253	121.5	0.05	 	;
254	123.5	0.15	 	;
255	120.5	0.3	 	;
256	113.5	0.3	 	;
257	113.5	0	 	;
258	113.5	0.05	 	;
259	109.5	0.1	 	;
26	120.5	0	 	;
260	107.5	0.05	 	;
261	104.5	0.05	 	;
262	111.5	0.05	 	;
263	103.5	0.2	 	;
264	103.5	0.05	 	;
265	110.5	0	 	;
266	108.5	0.05	 	;
267	108.5	0	 	;
268	103.5	0	 	;
269	103.5	0.1	 	;
27	113.5	0.05	 	;
270	115.5	0.05	 	;
271	115.5	0.05	 	;
272	115.5	0	 	;
273	116.5	0	 	;
274	121.5	0	 	;
275	116.5	0.05	 	;
276	115.5	0.05	 	;
277	115.5	0.1	 	;
278	122.5	0.1	 	;
279	122.5	0.15	 	;
28	117.5	0.05	 	;
280	118.5	0.05	 	;
281	119.5	0.15	 	;
282	114.5	0.05	 	;
283	111.5	0.1	 	;
284	109.5	0	 	;
285	112.5	0	 	;
286	112.5	0.1	 	;
287	112.5	0.05	 	;
288	115.5	0.1	 	;
289	121.5	0.15	 	;
29	113.5	0.1	 	;
290	117.5	0.15	 	;
291	117.5	0.15	 	;
292	117.5	0.3	 	;
293	117.5	0.25	 	;
294	113.5	0.05	 	;
295	112.5	0	 	;
296	112.5	0	 	;
297	107.5	0.2	 	;
298	102.5	0.35	 	;
299	102.5	0.05	 	;
3	118.5	0.25	 	;
30	106.5	0	 	;
300	102.5	0.2	 	;
301	102.5	0.1	 	;
302	102.5	0.1	 	;
303	102.5	0.05	 	;
304	102.5	0.15	 	;
305	105.5	0.2	 	;
306	110.5	0.25	 	;
307	110.5	0.05	 	;
308	110.5	0.05	 	;
309	112.5	0.15	 	;
31	122.5	0.3	 	;
310	112.5	0	 	;
311	113.5	0.05	 	;
312	113.5	0.1	 	;
313	114.5	0	 	;
314	114.5	0.05	 	;
315	117.5	0.1	 	;
316	117.5	0.1	 	;
317	117.5	0.2	 	;
318	114.5	0.1	 	;
319	110.5	0.05	 	;
32	119.5	0.15	 	;
320	107.5	0	 	;
321	107.5	0.25	 	;
322	112.5	0.05	 	;
323	110.5	0.05	 	;
324	110.5	0	 	;
325	110.5	0.05	 	;
326	110.5	0.05	 	;
327	110.5	0	 	;
328	107.5	0.1	 	;
329	113.5	0.1	 	;
33	121.5	0.1	 	;
330	113.5	0.15	 	;
331	111.5	0.2	 	;
332	111.5	0.05	 	;
333	110.5	0.1	 	;
334	110.5	0.05	 	;
335	109.5	0	 	;
336	109.5	0.1	 	;
337	109.5	0	 	;
338	109.5	0.05	 	;
339	114.5	0	 	;
34	108.5	0	 	;
340	115.5	0.05	 	;
341	105.5	0.1	 	;
342	105.5	0	 	;
343	112.5	0.05	 	;
344	117.5	0.35	 	;
345	117.5	0.25	 	;
346	112.5	0.05	 	;
347	114.5	0.05	 	;
348	122.5	0.05	 	;
349	111.5	0.05	 	;
35	102.5	0.1	 	;
350	111.5	0.2	 	;
351	108.5	0	 	;
352	107.5	0.15	 	;
353	105.5	0.15	 	;
354	106.5	0.25	 	;
355	106.5	0.05	 	;
356	106.5	0.35	 	;
357	107.5	0.25	 	;
358	105.5	0.3	 	;
359	105.5	0	 	;
36	124.5	0.1	 	;
360	103.5	0.25	 	;
361	103.5	0.3	 	;
362	105.5	0.25	 	;
363	121.5	0.05	 	;
364	118.5	0.1	 	;
365	119.5	0	 	;
366	119.5	0.1	 	;
367	121.5	0.15	 	;
368	118.5	0.1	 	;
369	114.5	0.2	 	;
37	122.5	0.2	 	;
370	115.5	0.35	 	;
371	115.5	0.2	 	;
372	115.5	0.35	 	;
373	122.5	0.15	 	;
374	120.5	0.25	 	;
375	118.5	0.4	 	;
376	116.5	0.05	 	;
377	116.5	0.05	 	;
378	116.5	0	 	;
379	116.5	0	 	;
38	116.5	1	 	;
380	110.5	0.05	 	;
381	110.5	0.25	 	;
382	109.5	0	 	;
383	110.5	0.05	 	;
384	110.5	0	 	;
385	108.5	0.05	 	;
386	108.5	0	 	;
387	121.5	0.1	 	;
388	108.5	0.3	 	;
389	118.5	0.2	 	;
39	121.5	0.15	 	;
390	115.5	0	 	;
391	117.5	0.15	 	;
392	119.5	0.05	 	;
393	104.5	0.05	 	;
394	104.5	0.1	 	;
395	104.5	0.05	 	;
396	104.5	0	 	;
397	111.5	0.05	 	;
398	105.5	0.1	 	;
399	116.5	0.2	 	;
4	114.5	0.1	 	;
40	111.5	0.1	 	;
400	115.5	0.4	 	;
401	118.5	0.45	 	;
402	113.5	0.15	 	;
403	118.5	0.1	 	;
404	123.5	0.15	 	;
405	117.5	0.2	 	;
406	118.5	0.1	 	;
407	117.5	0.15	 	;
408	117.5	0.1	 	;
409	117.5	0.1	 	;
41	115.5	0.05	 	;
410	117.5	0.3	 	;
411	117.5	0.15	 	;
412	117.5	0	 	;
413	114.5	0.15	 	;
414	114.5	0	 	;
415	101.5	0	 	;
416	121.5	0.1	 	;
417	121.5	0	 	;
418	112.5	0.05	 	;
419	112.5	0.05	 	;
42	111.5	0.25	 	;
420	113.5	0	 	;
421	111.5	0.1	 	;
422	113.5	0.15	 	;
423	111.5	0.25	 	;
424	114.5	0.15	 	;
425	119.5	0.05	 	;
426	119.5	0	 	;
427	119.5	0.15	 	;
428	112.5	0.25	 	;
429	119.5	0.05	 	;
43	105.5	0.3	 	;
430	114.5	0.05	 	;
431	115.5	0.1	 	;
432	115.5	0.05	 	;
433	115.5	0.05	 	;
434	116.5	0.1	 	;
435	116.5	0.3	 	;
436	111.5	0.25	 	;
437	108.5	0.2	 	;
438	105.5	0	 	;
439	105.5	0	 	;
44	113.5	0.1	 	;
440	103.5	0.15	 	;
441	103.5	0	 	;
442	104.5	0.15	 	;
443	104.5	0	 	;
444	104.5	0	 	;
445	105.5	0.05	 	;
446	105.5	0	 	;
447	119.5	0.1	 	;
448	119.5	0.05	 	;
449	119.5	0	 	;
45	101.5	0.2	 	;
450	123.5	0	 	;
451	115.5	0.05	 	;
452	115.5	0	 	;
453	114.5	0	 	;
454	114.5	0.05	 	;
455	109.5	0.05	 	;
456	116.5	0.2	 	;
457	116.5	0	 	;
458	119.5	0.15	 	;
459	113.5	0	 	;
46	121.5	0.1	 	;
460	113.5	0	 	;
461	115.5	0.15	 	;
462	117.5	0.1	 	;
463	105.5	0.15	 	;
464	121.5	0.05	 	;
465	121.5	0.15	 	;
466	121.5	0	 	;
467	120.5	0.15	 	;
468	120.5	0.05	 	;
469	120.5	0.15	 	;
47	118.5	0	 	;
470	120.5	0.05	 	;
471	116.5	0.25	 	;
472	113.5	0.3	 	;
473	111.5	0.3	 	;
474	109.5	0.25	 	;
475	119.5	0.2	 	;
476	110.5	0.05	 	;
477	114.5	0	 	;
478	114.5	0.05	 	;
479	119.5	0.3	 	;
48	106.5	0	 	;
480	120.5	0.1	 	;
481	120.5	0	 	;
482	120.5	0.05	 	;
483	120.5	0.1	 	;
484	115.5	0.15	 	;
485	113.5	0.1	 	;
486	114.5	0	 	;
487	110.5	0.15	 	;
488	109.5	0.05	 	;
489	107.5	0.5	 	;
49	111.5	0.2	 	;
490	101.5	0.1	 	;
491	101.5	0.65	 	;
492	117.5	0.1	 	;
493	119.5	0	 	;
494	120.5	0.15	 	;
495	114.5	0.05	 	;
496	114.5	0.1	 	;
497	114.5	0.05	 	;
498	120.5	0.05	 	;
499	112.5	0	 	;
5	109.5	0.15	 	;
50	115.5	0.7	 	;
500	109.5	0	 	;
501	113.5	0	 	;
502	117.5	0.1	 	;
503	119.5	0.1	 	;
504	111.5	0.05	 	;
505	115.5	0.05	 	;
506	112.5	0.1	 	;
507	111.5	0.05	 	;
508	111.5	0.25	 	;
509	118.5	0	 	;
51	105.5	0.15	 	;
510	118.5	0.45	 	;
511	110.5	0	 	;
512	110.5	0	 	;
513	110.5	0.05	 	;
514	110.5	0	 	;
515	104.5	0.05	 	;
516	103.5	0	 	;
517	103.5	0.05	 	;
518	118.5	0.2	 	;
519	118.5	0	 	;
52	121.5	0	 	;
520	107.5	0	 	;
521	107.5	0.1	 	;
522	105.5	0.3	 	;
523	105.5	0.15	 	;
524	106.5	0.25	 	;
525	98.5	0.1	 	;
526	111.5	0.25	 	;
527	113.5	0.2	 	;
528	115.5	0.2	 	;
529	119.5	0.05	 	;
53	121.5	0	 	;
530	119.5	0.2	 	;
531	118.5	0.2	 	;
532	111.5	0.25	 	;
533	109.5	0	 	;
534	109.5	0.05	 	;
535	103.5	0.15	 	;
536	121.5	0	 	;
537	117.5	0	 	;
538	114.5	0	 	;
539	114.5	0	 	;
54	110.5	0	 	;
540	110.5	0.05	 	;
541	109.5	0	 	;
542	101.5	0.2	 	;
543	117.5	0.05	 	;
544	114.5	0.05	 	;
545	117.5	0.05	 	;
546	109.5	0.25	 	;
547	108.5	0.05	 	;
548	104.5	0.15	 	;
549	101.5	0.3	 	;
55	111.5	0.05	 	;
550	107.5	0.3	 	;
551	113.5	0.1	 	;
552	110.5	0.35	 	;
553	110.5	0.3	 	;
554	109.5	0.25	 	;
555	109.5	0.15	 	;
556	112.5	1.05	 	;
557	109.5	0.75	 	;
558	104.5	0.15	 	;
559	104.5	0.05	 	;
56	113.5	0.2	 	;
560	104.5	0	 	;
561	111.5	0.1	 	;
562	121.5	0.1	 	;
563	106.5	0.2	 	;
564	98.5	0.15	 	;
565	98.5	0.05	 	;
566	98.5	0	 	;
567	103.5	0	 	;
568	103.5	0	 	;
569	103.5	0.05	 	;
57	113.5	0.15	 	;
570	103.5	0.25	 	;
571	103.5	0.15	 	;
572	103.5	0	 	;
573	103.5	0	 	;
574	105.5	0.05	 	;
575	121.5	0.1	 	;
576	117.5	0.05	 	;
577	117.5	0.1	 	;
578	117.5	0	 	;
579	115.5	0.05	 	;
58	114.5	0	 	;
580	117.5	0.1	 	;
581	120.5	0.2	 	;
582	118.5	0.1	 	;
583	118.5	0.15	 	;
584	118.5	0.05	 	;
585	122.5	0.15	 	;
586	123.5	0.25	 	;
587	107.5	0.4	 	;
588	110.5	0.3	 	;
589	119.5	0.05	 	;
59	116.5	0.05	 	;
590	123.5	0.05	 	;
591	123.5	0.05	 	;
592	123.5	0.05	 	;
593	115.5	0	 	;
594	114.5	0.1	 	;
595	102.5	0.25	 	;
596	119.5	0.1	 	;
597	119.5	0.15	 	;
598	119.5	0.15	 	;
599	109.5	0.05	 	;
6	113.5	0	 	;
60	117.5	0.15	 	;
600	108.5	0.05	 	;
601	103.5	0	 	;
602	108.5	0.35	 	;
603	108.5	0.05	 	;
604	105.5	0.1	 	;
605	105.5	0.2	 	;
606	105.5	0.05	 	;
607	107.5	0.3	 	;
608	115.5	0.1	 	;
609	112.5	0	 	;
61	117.5	0.15	 	;
610	120.5	0.1	 	;
611	110.5	0.15	 	;
612	110.5	0.15	 	;
613	111.5	0.15	 	;
614	111.5	0.05	 	;
615	104.5	0.1	 	;
616	102.5	0.05	 	;
617	106.5	0.15	 	;
618	111.5	0	 	;
619	104.5	0.05	 	;
62	101.5	0.1	 	;
620	115.5	0.15	 	;
621	111.5	0.25	 	;
622	110.5	0.05	 	;
623	110.5	0.1	 	;
624	112.5	0.2	 	;
625	115.5	0	 	;
626	119.5	0.1	 	;
627	119.5	0.05	 	;
628	120.5	0.25	 	;
629	116.5	0.4	 	;
63	123.5	0	 	;
630	115.5	0	 	;
631	119.5	0	 	;
632	119.5	0.05	 	;
633	119.5	0.05	 	;
634	111.5	0	 	;
635	115.5	0.2	 	;
636	115.5	0.1	 	;
637	114.5	0.05	 	;
638	107.5	0.1	 	;
639	107.5	0.1	 	;
64	124.5	0.15	 	;
640	111.5	0.15	 	;
641	111.5	0.1	 	;
642	121.5	0.05	 	;
643	121.5	0.1	 	;
644	120.5	0.1	 	;
645	109.5	0.1	 	;
646	108.5	0.15	 	;
647	108.5	0.05	 	;
648	114.5	0.05	 	;
649	112.5	0.15	 	;
65	124.5	0.05	 	;
650	121.5	0.1	 	;
651	107.5	0.1	 	;
652	114.5	0	 	;
653	109.5	0	 	;
654	109.5	0	 	;
655	109.5	0	 	;
656	109.5	0	 	;
657	109.5	0.15	 	;
658	109.5	0	 	;
659	109.5	0.05	 	;
66	121.5	0.25	 	;
660	116.5	0.15	 	;
661	117.5	0.2	 	;
662	106.5	0.15	 	;
663	107.5	0.15	 	;
664	111.5	0.3	 	;
665	103.5	0.25	 	;
666	117.5	0	 	;
667	113.5	0.1	 	;
668	113.5	0	 	;
669	120.5	0	 	;
67	114.5	0.25	 	;
670	114.5	0	 	;
671	114.5	0	 	;
672	111.5	0.1	 	;
673	107.5	0.05	 	;
674	107.5	0.1	 	;
675	102.5	0	 	;
676	98.5	0.05	 	;
677	113.5	0.05	 	;
678	118.5	0.6	 	;
679	117.5	0	 	;
68	101.5	0.2	 	;
680	103.5	0.05	 	;
681	103.5	0.1	 	;
682	106.5	0.5	 	;
683	108.5	0.05	 	;
684	108.5	0.2	 	;
685	105.5	0.1	 	;
686	110.5	0.05	 	;
687	110.5	0.05	 	;
688	110.5	0.1	 	;
689	104.5	0.15	 	;
69	115.5	0.05	 	;
690	105.5	0.15	 	;
691	103.5	0	 	;
692	103.5	0	 	;
693	98.5	0.35	 	;
694	98.5	0.3	 	;
695	98.5	0.15	 	;
696	105.5	0.55	 	;
697	114.5	0.05	 	;
698	114.5	0.1	 	;
699	112.5	0	 	;
7	104.5	0	 	;
70	113.5	0.2	 	;
700	112.5	0	 	;
701	110.5	0.05	 	;
702	110.5	0	 	;
703	105.5	0.15	 	;
704	115.5	0.15	 	;
705	115.5	0.1	 	;
706	111.5	0	 	;
707	112.5	0.15	 	;
708	112.5	0.3	 	;
709	120.5	0.1	 	;
71	114.5	0.15	 	;
710	111.5	0.1	 	;
711	111.5	0.15	 	;
712	107.5	0.05	 	;
713	107.5	0.05	 	;
714	106.5	0.05	 	;
715	106.5	0.15	 	;
716	106.5	0.15	 	;
717	117.5	0.1	 	;
718	121.5	0.8	 	;
719	107.5	0.1	 	;
72	114.5	0	 	;
720	108.5	0.1	 	;
721	114.5	0.05	 	;
722	112.5	0.3	 	;
723	109.5	0.3	 	;
724	109.5	0.15	 	;
725	109.5	0	 	;
726	116.5	0.2	 	;
727	115.5	0.1	 	;
728	115.5	0.15	 	;
729	102.5	0.2	 	;
73	108.5	0.1	 	;
730	104.5	0.3	 	;
731	101.5	0.3	 	;
732	104.5	0.15	 	;
733	110.5	0.55	 	;
734	109.5	0.25	 	;
735	109.5	0.2	 	;
736	109.5	0.05	 	;
737	110.5	0.1	 	;
738	113.5	0.05	 	;
739	113.5	0.05	 	;
74	116.5	0.05	 	;
740	113.5	0.25	 	;
741	110.5	0.1	 	;
742	110.5	0.1	 	;
743	110.5	0.1	 	;
744	112.5	0.05	 	;
745	110.5	0.05	 	;
746	112.5	0.05	 	;
747	115.5	0.05	 	;
748	115.5	0	 	;
749	116.5	0.15	 	;
75	114.5	0	 	;
750	116.5	0	 	;
751	116.5	0.15	 	;
752	114.5	0.4	 	;
753	114.5	0.1	 	;
754	114.5	0.15	 	;
755	114.5	0.1	 	;
756	116.5	0.1	 	;
757	116.5	0.1	 	;
758	116.5	0.15	 	;
759	116.5	0.25	 	;
76	114.5	0.05	 	;
760	113.5	0.05	 	;
761	113.5	0.1	 	;
762	115.5	0.1	 	;
763	115.5	0.15	 	;
764	115.5	0.4	 	;
765	113.5	0.35	 	;
766	116.5	0.55	 	;
767	121.5	0.35	 	;
768	123.5	0.1	 	;
769	126.5	0.15	 	;
77	114.5	0.05	 	;
770	105.5	0.05	 	;
771	105.5	0.4	 	;
772	116.5	0.05	 	;
773	116.5	0	 	;
774	116.5	0	 	;
775	107.5	0.1	 	;
776	104.5	0.25	 	;
777	103.5	0	 	;
778	110.5	0.1	 	;
779	104.5	0.7	 	;
78	114.5	0	 	;
780	111.5	0.25	 	;
781	111.5	0.55	 	;
782	108.5	0.8	 	;
783	115.5	0.1	 	;
784	110.5	0.25	 	;
785	106.5	0.15	 	;
786	121.5	0.1	 	;
787	116.5	0	 	;
788	123.5	0.15	 	;
789	107.5	0.15	 	;
79	111.5	0.1	 	;
790	122.5	0	 	;
791	122.5	0	 	;
792	116.5	0.05	 	;
793	119.5	0	 	;
794	103.5	0.05	 	;
795	112.5	0.05	 	;
796	120.5	0.4	 	;
797	117.5	0.2	 	;
798	106.5	0.1	 	;
799	118.5	0.2	 	;
8	116.5	0.05	 	;
80	111.5	0.15	 	;
800	118.5	0.2	 	;
801	109.5	0.1	 	;
802	115.5	0	 	;
803	120.5	0.1	 	;
804	120.5	0.3	 	;
805	109.5	0.5	 	;
806	118.5	0.1	 	;
807	121.5	0	 	;
808	108.5	0.05	 	;
809	109.5	0.1	 	;
81	115.5	0.15	 	;
810	123.5	0.1	 	;
811	123.5	0.05	 	;
812	111.5	0.05	 	;
813	112.5	0.05	 	;
814	114.5	0.1	 	;
815	119.5	0.05	 	;
816	111.5	0.4	 	;
817	114.5	0	 	;
818	113.5	0.1	 	;
819	122.5	0.05	 	;
82	109.5	0.2	 	;
820	123.5	0.05	 	;
821	119.5	0.05	 	;
822	113.5	0.1	 	;
823	111.5	0.15	 	;
824	121.5	0	 	;
825	121.5	0	 	;
826	109.5	0.2	 	;
827	108.5	0.15	 	;
828	102.5	0.1	 	;
83	102.5	0.1	 	;
84	111.5	0.25	 	;
85	117.5	0.15	 	;
86	108.5	0.05	 	;
87	108.5	0	 	;
88	111.5	0.1	 	;
89	116.5	0	 	;
9	105.5	0.05	 	;
90	114.5	0	 	;
91	121.5	0	 	;
92	110.5	0.05	 	;
93	105.5	0.05	 	;
94	121.5	0.05	 	;
95	112.5	0.15	 	;
96	113.5	0	 	;
97	115.5	0.15	 	;
98	116.5	0.1	 	;
99	115.5	0	 	;

[RESERVOIRS]
;ID	Head	Pattern
829	172	 	;
830	176	 	;

[TANKS]
;ID	Elevation	InitLevel	MinLevel	MaxLevel	Diameter	MinVol	VolCurve

[PIPES]
;ID	Node1	Node2	Length	Diameter	Roughness	MinorLoss	Status
831	822	44	23.64	508	0.0015	0	Open	;
832	57	96	75.29	508	0.0015	0	Open	;
833	391	392	75.15	457.2	0.0015	0	Open	;
834	824	825	17.37	101.6	0.0015	0	Open	;
835	825	1	32.78	254	0.0015	0	Open	;
836	1	2	139.6	914.4	0.0015	0	Open	;
837	3	4	59.35	203.2	0.0015	0	Open	;
838	4	5	68.52	355.6	0.0015	0	Open	;
839	495	697	92.91	457.2	0.0015	0	Open	;
840	259	285	47.22	203.2	0.0015	0	Open	;
841	33	509	34.68	101.6	0.0015	0	Open	;
842	32	33	89.36	152.4	0.0015	0	Open	;
843	33	14	45.22	76.2	0.0015	0	Open	;
844	46	24	25.11	152.4	0.0015	0	Open	;
845	826	827	49	762	0.0015	0	Open	;
846	105	54	9.24	355.6	0.0015	0	Open	;
847	551	56	45.96	609.6	0.0015	0	Open	;
848	377	18	37	457.2	0.0015	0	Open	;
849	603	604	53.15	254	0.0015	0	Open	;
850	253	46	32.71	355.6	0.0015	0	Open	;
851	613	614	54.31	457.2	0.0015	0	Open	;
852	453	454	15.97	355.6	0.0015	0	Open	;
853	818	822	50.55	304.8	0.0015	0	Open	;
854	120	642	23.9	609.6	0.0015	0	Open	;
855	643	644	43.99	304.8	0.0015	0	Open	;
856	815	32	45.01	203.2	0.0015	0	Open	;
857	89	90	59.4	203.2	0.0015	0	Open	;
858	60	16	106.29	152.4	0.0015	0	Open	;
859	64	65	27.31	762	0.0015	0	Open	;
860	65	36	50.08	203.2	0.0015	0	Open	;
861	10	47	4.07	457.2	0.0015	0	Open	;
862	102	66	140.56	508	0.0015	0	Open	;
863	38	50	145.24	609.6	0.0015	0	Open	;
864	398	170	50.52	609.6	0.0015	0	Open	;
865	47	38	103.37	101.6	0.0015	0	Open	;
866	602	603	54.37	101.6	0.0015	0	Open	;
867	54	121	45.84	762	0.0015	0	Open	;
868	645	437	89.09	304.8	0.0015	0	Open	;
869	458	3	34.44	254	0.0015	0	Open	;
870	590	591	13.66	609.6	0.0015	0	Open	;
871	276	447	25.38	254	0.0015	0	Open	;
872	642	643	25.51	101.6	0.0015	0	Open	;
873	492	391	54.61	254	0.0015	0	Open	;
874	394	45	102.73	355.6	0.0015	0	Open	;
875	38	344	62.27	304.8	0.0015	0	Open	;
876	78	599	29.83	76.2	0.0015	0	Open	;
877	91	52	30.7	609.6	0.0015	0	Open	;
878	52	120	5.99	355.6	0.0015	0	Open	;
879	726	65	184.2	508	0.0015	0	Open	;
880	652	670	7.05	355.6	0.0015	0	Open	;
881	546	547	53.11	304.8	0.0015	0	Open	;
882	204	205	54.72	355.6	0.0015	0	Open	;
883	250	389	15.2	609.6	0.0015	0	Open	;
884	811	63	16	406.4	0.0015	0	Open	;
885	63	64	30.67	76.2	0.0015	0	Open	;
886	230	543	40.92	304.8	0.0015	0	Open	;
887	113	230	29.1	609.6	0.0015	0	Open	;
888	472	818	85.78	304.8	0.0015	0	Open	;
889	319	320	110.87	254	0.0015	0	Open	;
890	86	351	7.59	406.4	0.0015	0	Open	;
891	149	150	15.96	254	0.0015	0	Open	;
892	489	357	85.4	152.4	0.0015	0	Open	;
893	34	242	30.24	76.2	0.0015	0	Open	;
894	49	520	62.67	76.2	0.0015	0	Open	;
895	543	575	56.79	203.2	0.0015	0	Open	;
896	95	57	71.25	762	0.0015	0	Open	;
897	820	503	73.41	152.4	0.0015	0	Open	;
898	477	27	100.75	406.4	0.0015	0	Open	;
899	691	692	32.09	304.8	0.0015	0	Open	;
900	90	91	122.99	76.2	0.0015	0	Open	;
901	44	95	42.21	762	0.0015	0	Open	;
902	797	97	91.18	101.6	0.0015	0	Open	;
903	97	98	83.52	152.4	0.0015	0	Open	;
904	790	791	40.02	76.2	0.0015	0	Open	;
905	791	100	49.73	406.4	0.0015	0	Open	;
906	103	104	15.02	508	0.0015	0	Open	;
907	104	105	49.25	609.6	0.0015	0	Open	;
908	105	106	89.66	508	0.0015	0	Open	;
909	106	107	7.25	254	0.0015	0	Open	;
910	107	108	18.02	762	0.0015	0	Open	;
911	108	109	12.75	152.4	0.0015	0	Open	;
912	109	110	35.16	406.4	0.0015	0	Open	;
913	110	111	36.46	914.4	0.0015	0	Open	;
914	111	112	52.28	304.8	0.0015	0	Open	;
915	112	113	25.93	762	0.0015	0	Open	;
916	113	114	15.73	406.4	0.0015	0	Open	;
917	114	115	127.69	914.4	0.0015	0	Open	;
918	115	116	43.49	101.6	0.0015	0	Open	;
919	116	796	61.3	762	0.0015	0	Open	;
920	796	117	101.54	762	0.0015	0	Open	;
921	117	118	76.46	101.6	0.0015	0	Open	;
922	118	119	53.21	406.4	0.0015	0	Open	;
923	119	120	20.38	406.4	0.0015	0	Open	;
924	122	123	111.02	508	0.0015	0	Open	;
925	123	124	52.95	609.6	0.0015	0	Open	;
926	124	125	60.3	406.4	0.0015	0	Open	;
927	125	126	94.61	152.4	0.0015	0	Open	;
928	126	127	84.75	254	0.0015	0	Open	;
929	127	97	102.04	304.8	0.0015	0	Open	;
930	97	128	59.67	152.4	0.0015	0	Open	;
931	128	129	79.67	914.4	0.0015	0	Open	;
932	129	130	49.65	457.2	0.0015	0	Open	;
933	130	131	30.92	355.6	0.0015	0	Open	;
934	131	5	14.81	355.6	0.0015	0	Open	;
935	5	132	38.97	203.2	0.0015	0	Open	;
936	132	133	34.84	406.4	0.0015	0	Open	;
937	133	134	6.69	101.6	0.0015	0	Open	;
938	134	135	23.3	457.2	0.0015	0	Open	;
939	135	136	19.32	508	0.0015	0	Open	;
940	138	139	31.83	762	0.0015	0	Open	;
941	139	140	11.4	254	0.0015	0	Open	;
942	140	141	55.98	914.4	0.0015	0	Open	;
943	141	142	45.47	457.2	0.0015	0	Open	;
944	142	143	32.76	457.2	0.0015	0	Open	;
945	143	144	33.32	152.4	0.0015	0	Open	;
946	144	145	3.58	914.4	0.0015	0	Open	;
947	145	146	91.29	152.4	0.0015	0	Open	;
948	146	70	74.58	76.2	0.0015	0	Open	;
949	70	147	82.65	101.6	0.0015	0	Open	;
950	147	148	75.08	762	0.0015	0	Open	;
951	88	137	27.94	457.2	0.0015	0	Open	;
952	150	151	37.65	152.4	0.0015	0	Open	;
953	151	152	38.84	254	0.0015	0	Open	;
954	794	153	11.43	304.8	0.0015	0	Open	;
955	153	154	29.13	76.2	0.0015	0	Open	;
956	154	155	8.7	101.6	0.0015	0	Open	;
957	155	156	30.29	152.4	0.0015	0	Open	;
958	808	157	43.7	254	0.0015	0	Open	;
959	157	158	48.94	609.6	0.0015	0	Open	;
960	158	159	41.92	508	0.0015	0	Open	;
961	159	160	100.02	203.2	0.0015	0	Open	;
962	54	161	8.74	762	0.0015	0	Open	;
963	161	162	23.63	203.2	0.0015	0	Open	;
964	162	163	85.33	152.4	0.0015	0	Open	;
965	163	164	8.54	406.4	0.0015	0	Open	;
966	164	165	38.97	101.6	0.0015	0	Open	;
967	165	166	8.75	762	0.0015	0	Open	;
968	11	167	17.73	508	0.0015	0	Open	;
969	167	168	64.55	508	0.0015	0	Open	;
970	169	170	25.5	355.6	0.0015	0	Open	;
971	170	171	48.84	914.4	0.0015	0	Open	;
972	171	172	33.26	355.6	0.0015	0	Open	;
973	172	173	19.03	152.4	0.0015	0	Open	;
974	173	174	13.9	762	0.0015	0	Open	;
975	174	175	18.9	152.4	0.0015	0	Open	;
976	176	177	73.36	508	0.0015	0	Open	;
977	177	178	82.19	914.4	0.0015	0	Open	;
978	47	179	28.48	101.6	0.0015	0	Open	;
979	179	180	58.38	914.4	0.0015	0	Open	;
980	180	181	58.51	355.6	0.0015	0	Open	;
981	181	182	32.55	355.6	0.0015	0	Open	;
982	182	183	27.72	203.2	0.0015	0	Open	;
983	183	184	27.73	76.2	0.0015	0	Open	;
984	184	185	4.91	76.2	0.0015	0	Open	;
985	185	186	14.33	355.6	0.0015	0	Open	;
986	186	187	24.48	762	0.0015	0	Open	;
987	187	188	16.47	762	0.0015	0	Open	;
988	188	189	61.45	457.2	0.0015	0	Open	;
989	189	190	58.28	304.8	0.0015	0	Open	;
990	190	191	42.51	406.4	0.0015	0	Open	;
991	58	192	44.46	762	0.0015	0	Open	;
992	192	193	11.4	762	0.0015	0	Open	;
993	193	194	11.76	101.6	0.0015	0	Open	;
994	194	195	14.83	762	0.0015	0	Open	;
995	195	130	20.08	152.4	0.0015	0	Open	;
996	112	204	95.54	254	0.0015	0	Open	;
997	205	206	94.04	254	0.0015	0	Open	;
998	196	197	56.4	76.2	0.0015	0	Open	;
999	197	198	40.1	304.8	0.0015	0	Open	;
1000	198	199	97.45	304.8	0.0015	0	Open	;
1001	199	200	95.08	203.2	0.0015	0	Open	;
1002	200	201	44.6	152.4	0.0015	0	Open	;
1003	201	202	54.95	152.4	0.0015	0	Open	;
1004	202	203	36.91	609.6	0.0015	0	Open	;
1005	203	187	30.05	203.2	0.0015	0	Open	;
1006	207	208	81.05	152.4	0.0015	0	Open	;
1007	208	209	25.33	406.4	0.0015	0	Open	;
1008	817	210	12.54	304.8	0.0015	0	Open	;
1009	210	211	11.8	762	0.0015	0	Open	;
1010	211	212	12.4	914.4	0.0015	0	Open	;
1011	212	213	18.23	152.4	0.0015	0	Open	;
1012	213	214	11.02	508	0.0015	0	Open	;
1013	214	215	9.13	254	0.0015	0	Open	;
1014	215	191	7.97	457.2	0.0015	0	Open	;
1015	191	216	34.95	203.2	0.0015	0	Open	;
1016	17	217	109.4	508	0.0015	0	Open	;
1017	798	218	62.96	152.4	0.0015	0	Open	;
1018	824	221	40.76	457.2	0.0015	0	Open	;
1019	221	222	45.12	457.2	0.0015	0	Open	;
1020	222	223	38.49	76.2	0.0015	0	Open	;
1021	223	224	39.88	304.8	0.0015	0	Open	;
1022	224	225	62.62	914.4	0.0015	0	Open	;
1023	225	226	68.28	609.6	0.0015	0	Open	;
1024	226	800	101.9	609.6	0.0015	0	Open	;
1025	800	227	36.5	152.4	0.0015	0	Open	;
1026	227	228	31.97	76.2	0.0015	0	Open	;
1027	228	229	11.77	762	0.0015	0	Open	;
1028	229	230	173.63	508	0.0015	0	Open	;
1029	219	59	37.16	304.8	0.0015	0	Open	;
1030	59	220	35.4	304.8	0.0015	0	Open	;
1031	220	231	35.76	762	0.0015	0	Open	;
1032	232	233	72.73	152.4	0.0015	0	Open	;
1033	202	69	14.69	355.6	0.0015	0	Open	;
1034	69	234	35.14	101.6	0.0015	0	Open	;
1035	23	235	98.85	152.4	0.0015	0	Open	;
1036	71	236	33.31	152.4	0.0015	0	Open	;
1037	236	237	35.59	76.2	0.0015	0	Open	;
1038	237	238	25.11	152.4	0.0015	0	Open	;
1039	238	239	7.05	762	0.0015	0	Open	;
1040	239	240	5.14	457.2	0.0015	0	Open	;
1041	240	241	46.1	457.2	0.0015	0	Open	;
1042	243	244	19.54	355.6	0.0015	0	Open	;
1043	244	245	502.46	101.6	0.0015	0	Open	;
1044	245	246	202.87	406.4	0.0015	0	Open	;
1045	246	247	80.06	304.8	0.0015	0	Open	;
1046	247	248	18.91	609.6	0.0015	0	Open	;
1047	248	249	64.1	203.2	0.0015	0	Open	;
1048	249	250	53.57	152.4	0.0015	0	Open	;
1049	250	251	35.91	355.6	0.0015	0	Open	;
1050	251	252	202.9	101.6	0.0015	0	Open	;
1051	252	253	27.61	152.4	0.0015	0	Open	;
1052	253	254	41.73	762	0.0015	0	Open	;
1053	254	102	139.65	355.6	0.0015	0	Open	;
1054	102	255	55.46	355.6	0.0015	0	Open	;
1055	255	256	107.29	254	0.0015	0	Open	;
1056	256	257	42.42	762	0.0015	0	Open	;
1057	257	258	34.54	457.2	0.0015	0	Open	;
1058	258	259	45.73	355.6	0.0015	0	Open	;
1059	242	260	65.76	508	0.0015	0	Open	;
1060	30	261	59.94	152.4	0.0015	0	Open	;
1061	79	262	56.78	355.6	0.0015	0	Open	;
1062	262	134	53.57	762	0.0015	0	Open	;
1063	263	264	46.43	914.4	0.0015	0	Open	;
1064	264	265	55.23	406.4	0.0015	0	Open	;
1065	265	266	36.14	76.2	0.0015	0	Open	;
1066	266	267	17.81	762	0.0015	0	Open	;
1067	267	268	45.4	762	0.0015	0	Open	;
1068	268	269	15.38	762	0.0015	0	Open	;
1069	270	271	42.93	508	0.0015	0	Open	;
1070	271	272	36.77	203.2	0.0015	0	Open	;
1071	272	273	32.47	609.6	0.0015	0	Open	;
1072	14	39	102.16	406.4	0.0015	0	Open	;
1073	26	274	81.93	152.4	0.0015	0	Open	;
1074	282	259	79.97	76.2	0.0015	0	Open	;
1075	285	286	43.44	152.4	0.0015	0	Open	;
1076	275	276	20.77	406.4	0.0015	0	Open	;
1077	276	277	66.94	76.2	0.0015	0	Open	;
1078	277	278	38.55	914.4	0.0015	0	Open	;
1079	278	279	51.33	304.8	0.0015	0	Open	;
1080	279	280	46.26	457.2	0.0015	0	Open	;
1081	280	281	28.7	457.2	0.0015	0	Open	;
1082	281	101	38.81	762	0.0015	0	Open	;
1083	812	132	58.32	508	0.0015	0	Open	;
1084	813	283	110.29	76.2	0.0015	0	Open	;
1085	286	287	24.96	406.4	0.0015	0	Open	;
1086	287	288	77.19	914.4	0.0015	0	Open	;
1087	288	289	77.38	762	0.0015	0	Open	;
1088	289	290	83.62	508	0.0015	0	Open	;
1089	290	291	79.16	508	0.0015	0	Open	;
1090	291	292	87.15	152.4	0.0015	0	Open	;
1091	292	293	113.44	457.2	0.0015	0	Open	;
1092	293	294	109.77	762	0.0015	0	Open	;
1093	294	11	92.55	152.4	0.0015	0	Open	;
1094	11	295	31.16	254	0.0015	0	Open	;
1095	295	296	1.88	355.6	0.0015	0	Open	;
1096	296	297	39.56	406.4	0.0015	0	Open	;
1097	297	298	109.41	508	0.0015	0	Open	;
1098	298	299	47.42	76.2	0.0015	0	Open	;
1099	299	300	33.53	609.6	0.0015	0	Open	;
1100	300	301	30.5	508	0.0015	0	Open	;
1101	301	302	26.28	76.2	0.0015	0	Open	;
1102	302	303	23.05	762	0.0015	0	Open	;
1103	303	304	32.36	203.2	0.0015	0	Open	;
1104	304	305	57.51	457.2	0.0015	0	Open	;
1105	305	306	78.13	609.6	0.0015	0	Open	;
1106	306	307	37.39	914.4	0.0015	0	Open	;
1107	307	308	24.37	406.4	0.0015	0	Open	;
1108	308	309	36.32	457.2	0.0015	0	Open	;
1109	309	310	23.69	76.2	0.0015	0	Open	;
1110	310	311	10.54	762	0.0015	0	Open	;
1111	311	312	37.42	914.4	0.0015	0	Open	;
1112	312	313	36.45	304.8	0.0015	0	Open	;
1113	313	314	26.02	101.6	0.0015	0	Open	;
1114	284	151	141.21	355.6	0.0015	0	Open	;
1115	315	316	54.93	609.6	0.0015	0	Open	;
1116	316	317	29.36	609.6	0.0015	0	Open	;
1117	317	318	30.42	101.6	0.0015	0	Open	;
1118	318	71	59.32	914.4	0.0015	0	Open	;
1119	320	321	20.84	101.6	0.0015	0	Open	;
1120	795	322	79.76	355.6	0.0015	0	Open	;
1121	322	323	40.87	609.6	0.0015	0	Open	;
1122	323	324	41.71	914.4	0.0015	0	Open	;
1123	324	325	14.06	152.4	0.0015	0	Open	;
1124	325	326	16.97	152.4	0.0015	0	Open	;
1125	326	327	3.98	762	0.0015	0	Open	;
1126	327	328	13.85	76.2	0.0015	0	Open	;
1127	245	329	20.4	101.6	0.0015	0	Open	;
1128	329	330	35.2	152.4	0.0015	0	Open	;
1129	330	331	74.74	152.4	0.0015	0	Open	;
1130	331	332	15.06	152.4	0.0015	0	Open	;
1131	332	333	75.48	355.6	0.0015	0	Open	;
1132	333	334	36.34	76.2	0.0015	0	Open	;
1133	69	185	66.91	254	0.0015	0	Open	;
1134	76	814	66.92	101.6	0.0015	0	Open	;
1135	814	335	65.53	457.2	0.0015	0	Open	;
1136	336	337	14.93	457.2	0.0015	0	Open	;
1137	337	338	8.15	762	0.0015	0	Open	;
1138	71	77	25.22	304.8	0.0015	0	Open	;
1139	77	339	20.37	76.2	0.0015	0	Open	;
1140	339	340	24.01	355.6	0.0015	0	Open	;
1141	43	341	23.6	152.4	0.0015	0	Open	;
1142	341	342	55.34	76.2	0.0015	0	Open	;
1143	342	343	55.31	152.4	0.0015	0	Open	;
1144	344	345	63.02	152.4	0.0015	0	Open	;
1145	345	346	15.09	152.4	0.0015	0	Open	;
1146	346	347	28.49	152.4	0.0015	0	Open	;
1147	347	236	43.71	76.2	0.0015	0	Open	;
1148	278	99	37.33	152.4	0.0015	0	Open	;
1149	99	348	17.43	76.2	0.0015	0	Open	;
1150	348	349	25.4	76.2	0.0015	0	Open	;
1151	349	350	24.97	76.2	0.0015	0	Open	;
1152	351	352	63.21	152.4	0.0015	0	Open	;
1153	15	363	96.46	152.4	0.0015	0	Open	;
1154	365	366	70.12	76.2	0.0015	0	Open	;
1155	353	354	70.81	152.4	0.0015	0	Open	;
1156	354	355	79.78	152.4	0.0015	0	Open	;
1157	355	356	83.69	152.4	0.0015	0	Open	;
1158	356	357	79.01	152.4	0.0015	0	Open	;
1159	357	358	91.62	76.2	0.0015	0	Open	;
1160	358	359	3.33	152.4	0.0015	0	Open	;
1161	359	360	62.97	152.4	0.0015	0	Open	;
1162	360	361	40.79	152.4	0.0015	0	Open	;
1163	361	362	45.99	76.2	0.0015	0	Open	;
1164	366	229	64.06	152.4	0.0015	0	Open	;
1165	229	367	47.84	152.4	0.0015	0	Open	;
1166	367	116	47.07	76.2	0.0015	0	Open	;
1167	116	368	124.89	152.4	0.0015	0	Open	;
1168	368	128	94.75	76.2	0.0015	0	Open	;
1169	128	369	85.35	76.2	0.0015	0	Open	;
1170	369	370	82.43	152.4	0.0015	0	Open	;
1171	370	371	77.67	152.4	0.0015	0	Open	;
1172	371	288	67.02	152.4	0.0015	0	Open	;
1173	288	372	69.96	76.2	0.0015	0	Open	;
1174	372	373	77.37	76.2	0.0015	0	Open	;
1175	373	374	84.55	76.2	0.0015	0	Open	;
1176	374	16	80.55	152.4	0.0015	0	Open	;
1177	16	375	22.26	76.2	0.0015	0	Open	;
1178	792	364	41.27	76.2	0.0015	0	Open	;
1179	364	273	60.21	152.4	0.0015	0	Open	;