[TITLE]

[JUNCTIONS]
;ID	Elev	Demand	Pattern
1	876.801	1	 	;
10	825	1	 	;
100	980.514	0.093	 	;
101	885.041	0.01	 	;
102	885.339	0.01	 	;
103	841.754	0.001	 	;
104	843.578	0.01	 	;
105	839	0.01	 	;
106	891.294	0.01	 	;
107	896.764	0.01	 	;
108	887.235	0.01	 	;
109	869	0.01	 	;
11	823	1	 	;
110	869	0.01	 	;
111	872.844	0.01	 	;
112	870.41	0.01	 	;
113	887	0.01	 	;
114	905.414	0.01	 	;
115	911.954	0.01	 	;
116	898.94	0.01	 	;
117	898.736	0.01	 	;
118	924.015	0.01	 	;
119	926.418	0.01	 	;
12	843	1	 	;
120	977.243	0.01	 	;
121	935.141	0.01	 	;
122	965.227	0.01	 	;
123	962.426	0.01	 	;
124	975.817	0.01	 	;
125	909.166	0.01	 	;
126	955.277	0.01	 	;
127	951.137	0.01	 	;
128	949.031	0.01	 	;
129	915.948	0.01	 	;
13	841.037	1	 	;
130	944.979	0.01	 	;
131	939.063	0.01	 	;
132	938.993	0.01	 	;
133	923.976	0.01	 	;
134	977.957	0.009	 	;
135	946.435	0.001	 	;
136	919.912	0.01	 	;
137	918.204	0.01	 	;
138	824.228	0.01	 	;
139	861.877	0.01	 	;
14	850.237	1	 	;
140	905.92	0.01	 	;
141	904.514	0.01	 	;
142	907.803	0.01	 	;
143	858.185	0.01	 	;
144	843.918	0.01	 	;
145	862.91	0.01	 	;
146	837.79	0.01	 	;
147	845.021	0.01	 	;
148	845.068	0.01	 	;
149	841.493	0.01	 	;
15	847.516	1	 	;
150	862.294	0.01	 	;
151	857.508	0.01	 	;
152	934	0.001	 	;
153	977.899	0.102	 	;
154	1029.527	0.006	 	;
155	1028.814	0.008	 	;
156	1030	0.027	 	;
157	1026.871	0.02	 	;
158	1028.43	0.065	 	;
159	982.885	0.031	 	;
16	839.83	1	 	;
160	989.871	0.21	 	;
161	990.409	0	 	;
162	985.186	0.123	 	;
163	996	0.026	 	;
164	996.116	0.079	 	;
165	990.555	0.033	 	;
166	988.193	0.057	 	;
167	990	0.028	 	;
168	1028	0.005	 	;
169	1015.139	0.008	 	;
17	846.444	1	 	;
170	1017.346	0	 	;
171	1016.418	0.03	 	;
172	1029	0.007	 	;
173	1026.245	0.023	 	;
174	1029.641	0	 	;
175	1029.247	0.029	 	;
176	1014.962	0.015	 	;
177	1031	0	 	;
178	1030.301	0	 	;
179	1030.29	0	 	;
18	872	1	 	;
180	1030.119	0	 	;
181	1020.224	0	 	;
182	1016.28	0.007	 	;
183	1007.444	0.02	 	;
184	1015.439	0.008	 	;
185	1012.731	0	 	;
186	1031	0.093	 	;
187	1018.01	0.032	 	;
188	1030.983	0	 	;
189	1022.942	0.061	 	;
19	868.968	1	 	;
190	1013.088	0.075	 	;
191	1000.094	0	 	;
192	997.751	0.008	 	;
193	985.705	0.075	 	;
194	1009.186	0.046	 	;
195	1001.929	0.001	 	;
196	1003	0	 	;
197	998.991	0.024	 	;
198	998.674	0	 	;
199	999.927	0.023	 	;
2	881.711	1	 	;
20	902.773	1	 	;
200	999.929	0.009	 	;
201	1003.859	0.021	 	;
202	1004.277	0.056	 	;
203	993.61	0.048	 	;
204	995	0.033	 	;
205	997.972	0	 	;
206	1012.362	0.039	 	;
207	1012.196	0	 	;
208	1008.207	0	 	;
209	1009.087	0	 	;
21	916.694	1	 	;
210	1009.092	0.069	 	;
211	1013.564	0.008	 	;
212	1017.542	0.028	 	;
213	1016.741	0.044	 	;
214	1002.091	0	 	;
215	1001.45	0	 	;
216	1000	0.008	 	;
217	1001.384	0.006	 	;
218	1003	0.03	 	;
219	995	0.027	 	;
22	924.717	0.057	 	;
220	1006.747	0	 	;
221	997.332	0.014	 	;
222	1004.784	0.04	 	;
223	997.815	0.026	 	;
224	994.255	0	 	;
225	999	0.022	 	;
226	995.272	0.015	 	;
227	1008.091	0.016	 	;
228	1005.746	0.087	 	;
229	1003	0.007	 	;
23	936.962	0.055	 	;
230	994.94	0.013	 	;
231	1009.661	0.019	 	;
232	1000.291	0.014	 	;
233	1013.133	0.014	 	;
234	1018.059	0.017	 	;
235	1029.027	0.011	 	;
236	1028.574	0	 	;
237	1029	0.038	 	;
238	1029.195	0.005	 	;
239	1026.831	0.02	 	;
24	856.221	0.01	 	;
240	1026	0.047	 	;
241	1025.476	0	 	;
242	1020.838	0.045	 	;
243	1021	0.005	 	;
244	1019.661	0	 	;
245	1028.174	0	 	;
246	1020.392	0.014	 	;
247	1025.545	0.04	 	;
248	966.341	0.001	 	;
249	966.84	0.018	 	;
25	965.738	0.016	 	;
250	972.941	0.032	 	;
251	981.291	0.014	 	;
252	977	0	 	;
253	977.075	0.013	 	;
254	976.859	0	 	;
255	943.491	0	 	;
256	988.88	0.015	 	;
257	989.512	0.041	 	;
258	989.756	0.024	 	;
259	984.946	0.021	 	;
26	976.704	0.013	 	;
260	988	0.069	 	;
261	984.858	0.01	 	;
262	990.335	0.049	 	;
263	985	0.024	 	;
264	985.763	0.009	 	;
265	990.86	0.016	 	;
266	987.795	0.017	 	;
267	987	0.025	 	;
268	984	0.062	 	;
269	990.807	0.014	 	;
27	947.599	0.01	 	;
270	980.984	0.01	 	;
271	981.826	0.043	 	;
272	986	0.039	 	;
273	986	0.005	 	;
274	972.916	0.029	 	;
275	976.546	0.012	 	;
276	980.973	0.029	 	;
277	978.695	0.013	 	;
278	980	0.025	 	;
279	971.397	1	 	;
28	851.027	0.01	 	;
280	973	0.005	 	;
281	968.353	0.071	 	;
282	980.568	0.024	 	;
283	985.422	0.047	 	;
284	979.407	0.042	 	;
285	983.892	0.037	 	;
286	995.674	0.018	 	;
287	968.901	0.06	 	;
288	906.915	1	 	;
289	958.038	0.012	 	;
29	876.251	0.001	 	;
290	870.054	1	 	;
291	851.52	1	 	;
292	823.537	1	 	;
293	889	1	 	;
294	845.25	1	 	;
295	866	1	 	;
296	931.427	1	 	;
297	940.227	0.001	 	;
298	923.932	1	 	;
299	1023	0.002	 	;
3	849.823	1	 	;
30	903.098	0.01	 	;
300	1033.228	1	 	;
301	872	1	 	;
302	949.59	0.003	 	;
303	987.511	0.028	 	;
304	987.548	0.01	 	;
305	984.017	0.01	 	;
306	1018	1	 	;
307	943.706	1	 	;
308	1028	0.001	 	;
309	894	0.001	 	;
31	872.556	0.01	 	;
310	877	1	 	;
311	853.085	1	 	;
312	980.652	1	 	;
313	875.604	0	 	;
314	885.494	1	 	;
315	898.129	1	 	;
316	909.157	1	 	;
317	891.623	1	 	;
318	887	1	 	;
319	890.789	1	 	;
32	868.571	0.01	 	;
320	938.767	1	 	;
321	955.949	1	 	;
322	906.337	1	 	;
323	898.657	0.001	 	;
324	1020	0.001	 	;
325	1030	0.032	 	;
326	975.899	1	 	;
327	996.127	0.001	 	;
328	979.413	0.008	 	;
329	1015.876	0.032	 	;
33	909.92	0.01	 	;
330	1003.836	1	 	;
331	991.54	0.063	 	;
332	998.61	1	 	;
333	1002.851	1	 	;
334	1028.89	0.009	 	;
335	1021	1	 	;
336	1025	0.019	 	;
337	980.644	0.032	 	;
338	942.547	0.155	 	;
339	985.703	0.026	 	;
34	908.654	0.01	 	;
35	908.844	0.01	 	;
36	914.565	0.01	 	;
37	870.686	0.01	 	;
38	901.525	0.01	 	;
39	915.709	0.01	 	;
4	858	1	 	;
40	986.985	0.01	 	;
41	1000.486	0.01	 	;
42	1028	0.415	 	;
43	1014	0.164	 	;
44	975.51	0.01	 	;
45	936.905	0.01	 	;
46	915.912	0.001	 	;
47	909.569	0.01	 	;
48	907.079	0.01	 	;
49	902.173	0.01	 	;
5	864.547	1	 	;
50	902	0.01	 	;
51	901.036	0.01	 	;
52	904.554	0.01	 	;
53	904.505	0.01	 	;
54	932	0.01	 	;
55	932.068	0.01	 	;
56	892.72	0.001	 	;
57	912	0.001	 	;
58	915.847	0.01	 	;
59	922.542	0.001	 	;
6	885.319	1	 	;
60	946.563	0.01	 	;
61	1027.767	0.001	 	;
62	958.344	0.001	 	;
63	949.592	0.071	 	;
64	948.33	0.01	 	;
65	996.248	0.158	 	;
66	945.601	0.056	 	;
67	1006	0.01	 	;
68	1022.963	0.019	 	;
69	1025.276	0.209	 	;
7	889.665	1	 	;
70	1029.244	0.236	 	;
71	1014	0.178	 	;
72	1023.055	0.019	 	;
73	1025.024	0.239	 	;
74	1020	0.01	 	;
75	1018.977	0.008	 	;
76	1002.864	0.01	 	;
78	879.245	0.001	 	;
79	1018	0.002	 	;
8	900	1	 	;
80	985	0.011	 	;
81	992.735	0.02	 	;
82	990.803	0.005	 	;
83	1004.688	0.012	 	;
84	1006.229	0.015	 	;
85	989	0.009	 	;
86	989.278	0.004	 	;
87	1006.339	0.01	 	;
88	1003	0.01	 	;
89	1003	0.003	 	;
9	852	1	 	;
90	984.945	0.012	 	;
91	1002.358	0.048	 	;
92	984.66	0.02	 	;
93	1028.526	0.01	 	;
94	1030.785	0.027	 	;
95	1028.242	0.111	 	;
96	1027	0.01	 	;
97	1026.218	0.001	 	;
98	851.847	0.01	 	;
99	964.574	0.01	 	;

[RESERVOIRS]
;ID	Head	Pattern
77	1060	 	;

[TANKS]
;ID	Elevation	InitLevel	MinLevel	MaxLevel	Diameter	MinVol	VolCurve

[PIPES]
;ID	Node1	Node2	Length	Diameter	Roughness	MinorLoss	Status
1	290	291	133.977	76.2	0.0015	0	Open	;
10	9	3	11.889	76.2	0.0015	0	Open	;
100	80	305	7.472	76.2	0.0015	0	Open	;
101	79	306	7.456	76.2	0.0015	0	Open	;
102	93	237	11.898	76.2	0.0015	0	Open	;
103	94	189	41.694	76.2	0.0015	0	Open	;
104	95	155	12.3	76.2	0.0015	0	Open	;
105	62	307	191.676	76.2	0.0015	0	Open	;
106	96	97	41.91	76.2	0.0015	0	Open	;
107	97	308	303.744	76.2	0.0015	0	Open	;
108	59	309	263.372	76.2	0.0015	0	Open	;
109	78	310	61.861	76.2	0.0015	0	Open	;
11	10	292	246.867	76.2	0.0015	0	Open	;
110	98	311	14.003	76.2	0.0015	0	Open	;
111	28	98	10.02	76.2	0.0015	0	Open	;
112	99	126	143.203	76.2	0.0015	0	Open	;
113	100	312	9.404	76.2	0.0015	0	Open	;
114	101	113	8.156	76.2	0.0015	0	Open	;
115	37	313	34.742	76.2	0.0015	0	Open	;
116	102	108	55.953	76.2	0.0015	0	Open	;
117	35	314	163.825	76.2	0.0015	0	Open	;
118	3	147	52.23	76.2	0.0015	0	Open	;
119	103	294	200.92	76.2	0.0015	0	Open	;
12	11	292	34.444	76.2	0.0015	0	Open	;
120	17	148	131.763	76.2	0.0015	0	Open	;
121	104	103	127.647	76.2	0.0015	0	Open	;
122	105	104	161.931	76.2	0.0015	0	Open	;
123	56	106	8.562	76.2	0.0015	0	Open	;
124	106	102	35.983	76.2	0.0015	0	Open	;
125	107	315	74.892	76.2	0.0015	0	Open	;
126	108	107	82.331	76.2	0.0015	0	Open	;
127	107	316	99.378	76.2	0.0015	0	Open	;
128	108	317	71.537	76.2	0.0015	0	Open	;
129	109	110	33.776	76.2	0.0015	0	Open	;
13	12	16	33.028	76.2	0.0015	0	Open	;
130	110	31	33.067	76.2	0.0015	0	Open	;
131	111	117	118.966	76.2	0.0015	0	Open	;
132	112	109	23.759	76.2	0.0015	0	Open	;
133	113	318	1.797	76.2	0.0015	0	Open	;
134	113	116	84.891	76.2	0.0015	0	Open	;
135	39	36	10.241	76.2	0.0015	0	Open	;
136	114	53	12.684	76.2	0.0015	0	Open	;
137	115	114	66.837	76.2	0.0015	0	Open	;
138	116	319	84.188	76.2	0.0015	0	Open	;
139	117	288	57.666	76.2	0.0015	0	Open	;
14	13	12	103.62	76.2	0.0015	0	Open	;
140	37	101	74.411	76.2	0.0015	0	Open	;
141	118	136	32.748	76.2	0.0015	0	Open	;
142	119	118	18.52	76.2	0.0015	0	Open	;
143	119	121	44.377	76.2	0.0015	0	Open	;
144	120	124	17.035	76.2	0.0015	0	Open	;
145	121	99	127.358	76.2	0.0015	0	Open	;
146	122	99	17.085	76.2	0.0015	0	Open	;
147	123	122	12.344	76.2	0.0015	0	Open	;
148	124	123	120.141	76.2	0.0015	0	Open	;
149	125	129	80.851	76.2	0.0015	0	Open	;
15	14	13	148.201	76.2	0.0015	0	Open	;
150	126	128	49.955	76.2	0.0015	0	Open	;
151	127	130	29.881	76.2	0.0015	0	Open	;
152	128	127	24.724	76.2	0.0015	0	Open	;
153	129	133	124.82	76.2	0.0015	0	Open	;
154	130	296	67.975	76.2	0.0015	0	Open	;
155	131	132	17.133	76.2	0.0015	0	Open	;
156	132	320	1.019	76.2	0.0015	0	Open	;
157	132	320	1.019	76.2	0.0015	0	Open	;
158	129	135	258.819	76.2	0.0015	0	Open	;
159	133	131	90.947	76.2	0.0015	0	Open	;
16	15	14	54.846	76.2	0.0015	0	Open	;
160	134	153	5.634	76.2	0.0015	0	Open	;
161	135	134	226.718	76.2	0.0015	0	Open	;
162	131	321	121.927	76.2	0.0015	0	Open	;
163	136	115	60.202	76.2	0.0015	0	Open	;
164	120	44	15.095	76.2	0.0015	0	Open	;
165	137	322	151.634	76.2	0.0015	0	Open	;
166	138	10	14.865	76.2	0.0015	0	Open	;
167	139	150	52.162	76.2	0.0015	0	Open	;
168	140	141	8.492	76.2	0.0015	0	Open	;
169	141	8	48.171	76.2	0.0015	0	Open	;
17	16	138	127.673	76.2	0.0015	0	Open	;
170	142	140	8.582	76.2	0.0015	0	Open	;
171	143	151	5.366	76.2	0.0015	0	Open	;
172	15	144	24.505	76.2	0.0015	0	Open	;
173	144	149	32.815	76.2	0.0015	0	Open	;
174	144	151	98.735	76.2	0.0015	0	Open	;
175	145	143	64.72	76.2	0.0015	0	Open	;
176	146	103	164.53	76.2	0.0015	0	Open	;
177	147	104	19.587	76.2	0.0015	0	Open	;
178	148	294	39.182	76.2	0.0015	0	Open	;
179	149	105	77.639	76.2	0.0015	0	Open	;
18	17	18	300.4	76.2	0.0015	0	Open	;
180	105	146	91.747	76.2	0.0015	0	Open	;
181	8	2	121.392	76.2	0.0015	0	Open	;
182	150	145	92.117	76.2	0.0015	0	Open	;
183	151	139	115.949	76.2	0.0015	0	Open	;
184	152	323	397.34	76.2	0.0015	0	Open	;
185	153	152	375.493	76.2	0.0015	0	Open	;
186	152	137	148.281	76.2	0.0015	0	Open	;
187	74	324	1.002	76.2	0.0015	0	Open	;
188	154	235	26.673	76.2	0.0015	0	Open	;
189	155	156	21.889	76.2	0.0015	0	Open	;
19	18	293	228.459	76.2	0.0015	0	Open	;
190	156	325	7.409	76.2	0.0015	0	Open	;
191	157	73	24.793	152.4	0.0015	0	Open	;
192	155	157	30.801	152.4	0.0015	0	Open	;
193	158	95	91.192	76.2	0.0015	0	Open	;
194	159	326	47.542	76.2	0.0015	0	Open	;
195	160	161	5.625	76.2	0.0015	0	Open	;
196	161	165	1.961	76.2	0.0015	0	Open	;
197	162	153	154.506	76.2	0.0015	0	Open	;
198	162	165	59.293	76.2	0.0015	0	Open	;
199	163	166	63.396	76.2	0.0015	0	Open	;
2	1	290	44.705	76.2	0.0015	0	Open	;
20	19	24	42.585	76.2	0.0015	0	Open	;
200	163	164	8.354	76.2	0.0015	0	Open	;
201	164	327	7.398	76.2	0.0015	0	Open	;
202	165	163	76.225	76.2	0.0015	0	Open	;
203	166	162	78.074	76.2	0.0015	0	Open	;
204	167	328	42.731	76.2	0.0015	0	Open	;
205	167	159	68.816	76.2	0.0015	0	Open	;
206	168	42	10.221	76.2	0.0015	0	Open	;
207	169	171	11.378	76.2	0.0015	0	Open	;
208	169	233	9.099	76.2	0.0015	0	Open	;
209	169	176	45.928	76.2	0.0015	0	Open	;
21	20	19	274.873	76.2	0.0015	0	Open	;
210	170	176	10.736	76.2	0.0015	0	Open	;
211	171	168	64.768	76.2	0.0015	0	Open	;
212	172	168	43.95	76.2	0.0015	0	Open	;
213	173	175	47.652	76.2	0.0015	0	Open	;
214	174	175	13.988	76.2	0.0015	0	Open	;
215	175	180	8.823	101.6	0.0015	0	Open	;
216	176	329	61.307	76.2	0.0015	0	Open	;
217	177	300	9.213	203.2	0.0015	0	Open	;
218	178	177	20.337	203.2	0.0015	0	Open	;
219	179	188	54.695	152.4	0.0015	0	Open	;
22	21	20	103.814	76.2	0.0015	0	Open	;
220	180	178	48.703	101.6	0.0015	0	Open	;
221	178	179	9.671	76.2	0.0015	0	Open	;
222	181	182	57.459	76.2	0.0015	0	Open	;
223	182	184	11.06	76.2	0.0015	0	Open	;
224	183	185	58.244	76.2	0.0015	0	Open	;
225	184	190	27.156	76.2	0.0015	0	Open	;
226	185	182	13.129	76.2	0.0015	0	Open	;
227	183	330	12.369	76.2	0.0015	0	Open	;
228	186	94	9.421	76.2	0.0015	0	Open	;
229	187	183	55.045	76.2	0.0015	0	Open	;
23	22	21	137.438	76.2	0.0015	0	Open	;
230	188	186	9.463	152.4	0.0015	0	Open	;
231	189	329	78.875	76.2	0.0015	0	Open	;
232	173	176	57.533	76.2	0.0015	0	Open	;
233	190	331	126.626	76.2	0.0015	0	Open	;
234	165	167	43.584	76.2	0.0015	0	Open	;
235	191	232	10.035	76.2	0.0015	0	Open	;
236	192	232	11.646	76.2	0.0015	0	Open	;
237	193	90	38.766	76.2	0.0015	0	Open	;
238	194	195	25.268	76.2	0.0015	0	Open	;
239	195	332	10.82	76.2	0.0015	0	Open	;
24	23	22	177.96	76.2	0.0015	0	Open	;
240	194	191	81.234	76.2	0.0015	0	Open	;
241	196	88	6.748	76.2	0.0015	0	Open	;
242	197	199	11.932	76.2	0.0015	0	Open	;
243	198	205	5.096	76.2	0.0015	0	Open	;
244	199	198	9.546	76.2	0.0015	0	Open	;
245	200	199	13.991	76.2	0.0015	0	Open	;
246	199	76	41.96	76.2	0.0015	0	Open	;
247	201	202	28.344	76.2	0.0015	0	Open	;
248	202	229	22.75	76.2	0.0015	0	Open	;
249	203	204	10.978	76.2	0.0015	0	Open	;
25	24	294	90.65	76.2	0.0015	0	Open	;
250	204	230	45.511	76.2	0.0015	0	Open	;
251	204	202	52.319	76.2	0.0015	0	Open	;
252	196	201	10.455	76.2	0.0015	0	Open	;
253	205	204	25.625	76.2	0.0015	0	Open	;
254	202	194	58.857	76.2	0.0015	0	Open	;
255	206	207	9.989	76.2	0.0015	0	Open	;
256	207	211	12.455	76.2	0.0015	0	Open	;
257	208	209	11.099	76.2	0.0015	0	Open	;
258	209	231	11.073	76.2	0.0015	0	Open	;
259	210	206	88.506	76.2	0.0015	0	Open	;
26	25	289	50.5	76.2	0.0015	0	Open	;
260	211	212	41.753	76.2	0.0015	0	Open	;
261	212	79	7.974	76.2	0.0015	0	Open	;
262	213	212	11.023	76.2	0.0015	0	Open	;
263	212	234	54.318	76.2	0.0015	0	Open	;
264	214	215	10.499	76.2	0.0015	0	Open	;
265	215	217	10.027	76.2	0.0015	0	Open	;
266	216	215	10.596	76.2	0.0015	0	Open	;
267	215	218	12.599	76.2	0.0015	0	Open	;
268	217	225	41.429	76.2	0.0015	0	Open	;
269	218	333	7.414	76.2	0.0015	0	Open	;
27	26	25	67.931	76.2	0.0015	0	Open	;
270	219	226	10.484	76.2	0.0015	0	Open	;
271	219	216	35.591	76.2	0.0015	0	Open	;
272	87	220	9.118	76.2	0.0015	0	Open	;
273	220	228	46.064	76.2	0.0015	0	Open	;
274	221	224	11.21	76.2	0.0015	0	Open	;
275	222	228	9.628	76.2	0.0015	0	Open	;
276	187	75	61.245	76.2	0.0015	0	Open	;
277	223	286	33.613	76.2	0.0015	0	Open	;
278	221	223	9.923	76.2	0.0015	0	Open	;
279	224	81	7.87	76.2	0.0015	0	Open	;
28	27	255	26.246	76.2	0.0015	0	Open	;
280	225	222	54.263	76.2	0.0015	0	Open	;
281	226	286	58.718	76.2	0.0015	0	Open	;
282	225	221	18.43	76.2	0.0015	0	Open	;
283	227	210	10.086	76.2	0.0015	0	Open	;
284	228	213	88.483	76.2	0.0015	0	Open	;
285	228	208	42.218	76.2	0.0015	0	Open	;
286	229	214	22.677	76.2	0.0015	0	Open	;
287	230	219	9.543	76.2	0.0015	0	Open	;
288	231	194	41.604	76.2	0.0015	0	Open	;
289	232	207	54.667	76.2	0.0015	0	Open	;
29	28	98	10.02	76.2	0.0015	0	Open	;
290	207	183	65.866	76.2	0.0015	0	Open	;
291	233	193	220.21	76.2	0.0015	0	Open	;
292	234	187	10.485	76.2	0.0015	0	Open	;
293	164	200	55.047	76.2	0.0015	0	Open	;
294	172	158	15.26	76.2	0.0015	0	Open	;
295	154	174	55.33	76.2	0.0015	0	Open	;
296	235	172	11.383	76.2	0.0015	0	Open	;
297	156	174	46.951	76.2	0.0015	0	Open	;
298	236	245	6.514	76.2	0.0015	0	Open	;
299	237	236	9.892	76.2	0.0015	0	Open	;
3	2	1	59.666	76.2	0.0015	0	Open	;
30	29	28	401.455	76.2	0.0015	0	Open	;
300	238	237	6.153	76.2	0.0015	0	Open	;
301	238	334	7.411	76.2	0.0015	0	Open	;
302	239	93	55.2	101.6	0.0015	0	Open	;
303	70	238	66.511	76.2	0.0015	0	Open	;
304	240	247	10.063	76.2	0.0015	0	Open	;
305	241	240	8.862	76.2	0.0015	0	Open	;
306	242	241	55.038	76.2	0.0015	0	Open	;
307	242	243	24.674	76.2	0.0015	0	Open	;
308	243	335	9.663	76.2	0.0015	0	Open	;
309	244	242	11.787	76.2	0.0015	0	Open	;
31	30	29	192.914	76.2	0.0015	0	Open	;
310	239	336	39.716	76.2	0.0015	0	Open	;
311	240	239	6.143	76.2	0.0015	0	Open	;
312	87	244	88.399	76.2	0.0015	0	Open	;
313	245	181	42.125	76.2	0.0015	0	Open	;
314	237	186	100.513	152.4	0.0015	0	Open	;
315	246	242	13.214	76.2	0.0015	0	Open	;
316	247	187	47.033	76.2	0.0015	0	Open	;
317	248	249	8.743	76.2	0.0015	0	Open	;
318	249	287	11.462	76.2	0.0015	0	Open	;
319	250	249	83.844	76.2	0.0015	0	Open	;
32	31	111	1.462	76.2	0.0015	0	Open	;
320	251	337	7.065	76.2	0.0015	0	Open	;
321	252	254	2.746	76.2	0.0015	0	Open	;
322	253	252	0.965	76.2	0.0015	0	Open	;
323	254	26	1.369	76.2	0.0015	0	Open	;
324	253	100	53.507	76.2	0.0015	0	Open	;
325	255	23	48.054	76.2	0.0015	0	Open	;
326	256	258	9.833	76.2	0.0015	0	Open	;
327	257	166	67.205	76.2	0.0015	0	Open	;
328	258	257	10.74	76.2	0.0015	0	Open	;
329	259	261	9.866	76.2	0.0015	0	Open	;
33	32	31	13.45	76.2	0.0015	0	Open	;
330	260	261	39.881	76.2	0.0015	0	Open	;
331	261	285	17.219	76.2	0.0015	0	Open	;
332	261	256	86.372	76.2	0.0015	0	Open	;
333	262	265	9.849	76.2	0.0015	0	Open	;
334	263	264	11.663	76.2	0.0015	0	Open	;
335	264	267	9.809	76.2	0.0015	0	Open	;
336	265	269	10.394	76.2	0.0015	0	Open	;
337	266	265	44.718	76.2	0.0015	0	Open	;
338	267	266	11.369	76.2	0.0015	0	Open	;
339	268	260	57.702	76.2	0.0015	0	Open	;
34	33	30	43.811	76.2	0.0015	0	Open	;
340	268	263	75.374	76.2	0.0015	0	Open	;
341	260	262	86.843	76.2	0.0015	0	Open	;
342	269	258	29.82	76.2	0.0015	0	Open	;
343	270	271	9.938	76.2	0.0015	0	Open	;
344	271	272	39.483	76.2	0.0015	0	Open	;
345	272	251	49.467	76.2	0.0015	0	Open	;
346	273	272	9.713	76.2	0.0015	0	Open	;
347	274	275	38.603	76.2	0.0015	0	Open	;
348	275	270	48.856	76.2	0.0015	0	Open	;
349	275	276	39.243	76.2	0.0015	0	Open	;
35	34	33	35.059	76.2	0.0015	0	Open	;
350	276	80	38.026	76.2	0.0015	0	Open	;
351	277	278	10.12	76.2	0.0015	0	Open	;
352	278	282	10.154	76.2	0.0015	0	Open	;
353	279	275	60.218	76.2	0.0015	0	Open	;
354	279	280	9.387	76.2	0.0015	0	Open	;
355	279	281	18.421	76.2	0.0015	0	Open	;
356	280	277	42.687	76.2	0.0015	0	Open	;
357	281	274	64.9	76.2	0.0015	0	Open	;
358	282	271	48.572	76.2	0.0015	0	Open	;
359	271	260	68.582	76.2	0.0015	0	Open	;
36	35	34	2.642	76.2	0.0015	0	Open	;
360	278	268	68.455	76.2	0.0015	0	Open	;
361	272	259	58.684	76.2	0.0015	0	Open	;
362	283	92	59.091	76.2	0.0015	0	Open	;
363	284	278	31.675	76.2	0.0015	0	Open	;
364	281	338	143.318	76.2	0.0015	0	Open	;
365	276	253	44.821	101.6	0.0015	0	Open	;
366	285	251	68.338	76.2	0.0015	0	Open	;
367	265	203	52.723	76.2	0.0015	0	Open	;
368	258	197	52.491	76.2	0.0015	0	Open	;
369	267	219	64.757	76.2	0.0015	0	Open	;
37	36	30	111.079	76.2	0.0015	0	Open	;
370	286	283	64.871	76.2	0.0015	0	Open	;
371	287	162	85.77	76.2	0.0015	0	Open	;
372	142	255	248.737	76.2	0.0015	0	Open	;
373	166	250	74.219	76.2	0.0015	0	Open	;
374	132	135	160.378	76.2	0.0015	0	Open	;
375	263	339	7.438	76.2	0.0015	0	Open	;
376	218	227	40.323	76.2	0.0015	0	Open	;
377	288	35	75.506	76.2	0.0015	0	Open	;
378	289	27	68.994	101.6	0.0015	0	Open	;
38	37	295	157.864	76.2	0.0015	0	Open	;
39	38	116	26.126	76.2	0.0015	0	Open	;
4	3	291	82.836	76.2	0.0015	0	Open	;
40	39	38	70.546	76.2	0.0015	0	Open	;
41	40	120	120.362	76.2	0.0015	0	Open	;
42	41	40	144.485	76.2	0.0015	0	Open	;
43	42	43	111.672	76.2	0.0015	0	Open	;
44	43	41	82.906	76.2	0.0015	0	Open	;
45	44	45	342.118	76.2	0.0015	0	Open	;
46	45	54	45.146	76.2	0.0015	0	Open	;
47	46	296	201.467	76.2	0.0015	0	Open	;
48	47	46	82.919	76.2	0.0015	0	Open	;
49	48	47	15.59	76.2	0.0015	0	Open	;
5	4	9	37.534	76.2	0.0015	0	Open	;
50	49	48	38.225	76.2	0.0015	0	Open	;
51	50	49	57.844	76.2	0.0015	0	Open	;
52	51	50	44.123	76.2	0.0015	0	Open	;
53	51	52	30.885	76.2	0.0015	0	Open	;
54	52	53	15.795	76.2	0.0015	0	Open	;
55	53	297	171.463	76.2	0.0015	0	Open	;
56	54	53	239.02	76.2	0.0015	0	Open	;
57	55	36	176.727	76.2	0.0015	0	Open	;
58	28	56	460.201	76.2	0.0015	0	Open	;
59	56	57	231.381	76.2	0.0015	0	Open	;
6	5	4	67.222	76.2	0.0015	0	Open	;
60	57	58	99.874	76.2	0.0015	0	Open	;
61	58	78	374.379	76.2	0.0015	0	Open	;
62	59	58	76.598	76.2	0.0015	0	Open	;
63	59	60	296.832	101.6	0.0015	0	Open	;
64	60	62	107.634	76.2	0.0015	0	Open	;
65	61	96	15.021	101.6	0.0015	0	Open	;
66	62	96	566.591	76.2	0.0015	0	Open	;
67	63	64	10.08	76.2	0.0015	0	Open	;
68	64	66	29.635	76.2	0.0015	0	Open	;
69	65	63	261.449	76.2	0.0015	0	Open	;
7	6	5	158.49	76.2	0.0015	0	Open	;
70	66	298	170.014	76.2	0.0015	0	Open	;
71	67	65	102.696	76.2	0.0015	0	Open	;
72	68	299	788.764	76.2	0.0015	0	Open	;
73	69	72	184.784	76.2	0.0015	0	Open	;
74	70	69	205.695	76.2	0.0015	0	Open	;
75	71	74	365.489	152.4	0.0015	0	Open	;
76	72	68	165.644	76.2	0.0015	0	Open	;
77	73	71	785.066	152.4	0.0015	0	Open	;
78	74	61	396.951	152.4	0.0015	0	Open	;
79	75	181	10.889	76.2	0.0015	0	Open	;
8	7	6	33.368	76.2	0.0015	0	Open	;
80	76	196	9.562	76.2	0.0015	0	Open	;
81	77	300	298.402	203.2	0.0015	0	Open	;
82	78	301	131.143	76.2	0.0015	0	Open	;
83	79	246	35.222	76.2	0.0015	0	Open	;
84	80	273	8.769	76.2	0.0015	0	Open	;
85	63	302	6.644	76.2	0.0015	0	Open	;
86	81	86	18.241	76.2	0.0015	0	Open	;
87	82	86	10.279	76.2	0.0015	0	Open	;
88	83	82	47.416	76.2	0.0015	0	Open	;
89	67	83	5.061	76.2	0.0015	0	Open	;
9	8	7	114.789	76.2	0.0015	0	Open	;
90	84	67	2.691	76.2	0.0015	0	Open	;
91	85	303	27.256	76.2	0.0015	0	Open	;
92	86	85	4.262	76.2	0.0015	0	Open	;
93	87	84	0.803	76.2	0.0015	0	Open	;
94	88	91	8.664	76.2	0.0015	0	Open	;
95	89	304	93.94	76.2	0.0015	0	Open	;
96	90	192	34.458	76.2	0.0015	0	Open	;
97	91	89	11.757	76.2	0.0015	0	Open	;
98	90	91	142.651	76.2	0.0015	0	Open	;
99	92	267	10.166	76.2	0.0015	0	Open	;

[PUMPS]
;ID	Node1	Node2	Parameters

[VALVES]
;ID	Node1	Node2	Diameter	Type	Setting	MinorLoss

[TAGS]

[DEMANDS]
;Junction	Demand	Pattern	Category

[STATUS]
;ID	Status/Setting

[PATTERNS]
;ID	M1	M2	M3	M4	M5	M6

[CURVES]
;ID	X-Value	Y-Value

[CONTROLS]

[RULES]

[ENERGY]
Global Efficiency	75
Global Price	0
Demand Charge	0

[EMITTERS]
;Junction	Coefficient
1	0	;
10	0	;
100	0	;
101	0	;
102	0	;
103	0	;
104	0	;
105	0	;
106	0	;
107	0	;
108	0	;
109	0	;
11	0	;
110	0	;
111	0	;
112	0	;
113	0	;
114	0	;
115	0	;
116	0	;
117	0	;
118	0	;
119	0	;
12	0	;
120	0	;
121	0	;
122	0	;
123	0	;
124	0	;
125	0	;
126	0	;
127	0	;
128	0	;
129	0	;
13	0	;
130	0	;
131	0	;
132	0	;
133	0	;
134	0	;
135	0	;
136	0	;
137	0	;
138	0	;
139	0	;
14	0	;
140	0	;
141	0	;
142	0	;
143	0	;
144	0	;
145	0	;
146	0	;
147	0	;
148	0	;
149	0	;
15	0	;
150	0	;
151	0	;
152	0	;
153	0	;
154	0	;
155	0	;
156	0	;
157	0	;
158	0	;
159	0	;
16	0	;
160	0	;
161	0	;
162	0	;
163	0	;
164	0	;
165	0	;
166	0	;
167	0	;
168	0	;
169	0	;
17	0	;
170	0	;
171	0	;
172	0	;
173	0	;
174	0	;
175	0	;
176	0	;
177	0	;
178	0	;
179	0	;
18	0	;
180	0	;
181	0	;
182	0	;
183	0	;
184	0	;
185	0	;
186	0	;
187	0	;
188	0	;
189	0	;
19	0	;
190	0	;
191	0	;
192	0	;
193	0	;
194	0	;
195	0	;
196	0	;
197	0	;
198	0	;
199	0	;
2	0	;
20	0	;
200	0	;
201	0	;
202	0	;
203	0	;
204	0	;
205	0	;
206	0	;
207	0	;
208	0	;
209	0	;
21	0	;
210	0	;
211	0	;
212	0	;
213	0	;
214	0	;
215	0	;
216	0	;
217	0	;
218	0	;
219	0	;
22	0	;
220	0	;
221	0	;
222	0	;
223	0	;
224	0	;
225	0	;
226	0	;
227	0	;
228	0	;
229	0	;
23	0	;
230	0	;
231	0	;
232	0	;
233	0	;
234	0	;
235	0	;
236	0	;
237	0	;
238	0	;
239	0	;
24	0	;
240	0	;
241	0	;
242	0	;
243	0	;
244	0	;
245	0	;
246	0	;
247	0	;
248	0	;
249	0	;
25	0	;
250	0	;
251	0	;
252	0	;
253	0	;
254	0	;
255	0	;
256	0	;
257	0	;
258	0	;
259	0	;
26	0	;
260	0	;
261	0	;
262	0	;
263	0	;
264	0	;
265	0	;
266	0	;
267	0	;
268	0	;
269	0	;
27	0	;
270	0	;
271	0	;
272	0	;
273	0	;
274	0	;
275	0	;
276	0	;
277	0	;
278	0	;
279	0	;
28	0	;
280	0	;
281	0	;
282	0	;
283	0	;
284	0	;
285	0	;
286	0	;
287	0	;
288	0	;
289	0	;
29	0	;
290	0	;
291	0	;
292	0	;
293	0	;
294	0	;
295	0	;
296	0	;
297	0	;
298	0	;
299	0	;
3	0	;
30	0	;
300	0	;
301	0	;
302	0	;
303	0	;
304	0	;
305	0	;
306	0	;
307	0	;
308	0	;
309	0	;
31	0	;
310	0	;
311	0	;
312	0	;
313	0	;
314	0	;
315	0	;
316	0	;
317	0	;
318	0	;
319	0	;
32	0	;
320	0	;
321	0	;
322	0	;
323	0	;
324	0	;
325	0	;
326	0	;
327	0	;
328	0	;
329	0	;
33	0	;
330	0	;
331	0	;
332	0	;
333	0	;
334	0	;
335	0	;
336	0	;
337	0	;
338	0	;
339	0	;
34	0	;
35	0	;
36	0	;
37	0	;
38	0	;
39	0	;
4	0	;
40	0	;
41	0	;
42	0	;
43	0	;
44	0	;
45	0	;
46	0	;
47	0	;
48	0	;
49	0	;
5	0	;
50	0	;
51	0	;
52	0	;
53	0	;
54	0	;
55	0	;
56	0	;
57	0	;
58	0	;
59	0	;
6	0	;
60	0	;
61	0	;
62	0	;
63	0	;
64	0	;
65	0	;
66	0	;
67	0	;
68	0	;
69	0	;
7	0	;
70	0	;
71	0	;
72	0	;
73	0	;
74	0	;
75	0	;
76	0	;
78	0	;
79	0	;
8	0	;
80	0	;
81	0	;
82	0	;
83	0	;
84	0	;
85	0	;
86	0	;
87	0	;
88	0	;
89	0	;
9	0	;
90	0	;
91	0	;
92	0	;
93	0	;
94	0	;
95	0	;
96	0	;
97	0	;
98	0	;
99	0	;

[QUALITY]
;Node	InitQual

[SOURCES]
;Node	Type	Quality	Pattern

[REACTIONS]
Order Bulk	1
Order Tank	1
Order Wall	1
Global Bulk	0
Global Wall	0
Limiting Potential	0

[REACTIONS]
;Var	Value

[MIXING]
;Tank	Model

[TIMES]
;Var	Value
Duration	00:15
Pattern Timestep	00:15
Hydraulic Timestep	00:15
Quality Timestep	0:05
Pattern Start	00:00
Report Timestep	00:15
Report Start	00:00
Start ClockTime	00:00
Statistic	None

[REPORT]
;Var	Value
Status	No
Summary	No
Page	0

[OPTIONS]
Units	LPS
HeadLoss	D-W
Specific Gravity	1
Viscosity	1
Trials	1000
Accuracy	0.001
Unbalanced	Continue 10
Pattern	1
Demand Multiplier	1
Emitter Exponent	0.5
Quality	None mg/L
Diffusivity	1
Tolerance	0.01

[COORDINATES]
;Node	X-Coord	Y-Coord
1	9987.08	10925.33
10	10193.13	11792.48
100	9885.27	10214.68
101	11099.69	10322.61
102	12076.42	9921.94
103	9654.68	11201.8
104	9778.52	11170.91
105	9807.45	11330.17
106	12110.6	9931.48
107	12072.73	9791.89
108	12052.87	9871.22
109	11302.9	10526.8
11	10124.58	12058.46
110	11269.48	10531.69
111	11237.16	10522.05
112	11309.57	10504.04
113	11099.17	10314.71
114	10834.28	10152.19
115	10771.66	10129.76
116	11073.97	10234.53
117	11197.06	10413.08
118	10695.11	10080.22
119	10682.86	10066.54
12	10069.17	11671.1
120	10749.95	9839.48
121	10682.53	10023.03
122	10630.12	9907.31
123	10638	9916.39
124	10734.09	9845.53
125	10657.08	10363.38
126	10514.27	10017.53
127	10465.07	10058.77
128	10489.64	10060.54
129	10583.6	10396.42
13	10000.62	11593.42
130	10463.75	10087.98
131	10422.36	10272.82
132	10420.31	10289.83
133	10508.77	10296.84
134	10206.19	10231.79
135	10327.72	10420.57
136	10725.33	10092.15
137	10482.52	10522.29
138	10185.17	11779.95
139	9908.38	11636.85
14	9902.98	11482.31
140	9951.51	10703.6
141	9953.48	10711.74
142	9949.55	10695.46
143	9859.63	11533.16
144	9840.37	11434.95
145	9808.72	11572.84
146	9718.68	11353.32
147	9789.33	11154.64
148	9460.42	11069.55
149	9826.12	11405.49
15	9856.92	11452.66
150	9858.07	11650.62
151	9863.83	11529.89
152	10346.8	10579.89
153	10202.48	10236.03
154	10356.02	9576.99
155	10357.49	9507.85
156	10342.02	9523.29
157	10368.02	9478.97
158	10389.24	9605.45
159	10193.05	10107.49
16	10089.29	11697.1
160	10118.3	10104.82
161	10114.08	10101.14
162	10076.64	10146.68
163	10055.5	10049.66
164	10049.23	10044.14
165	10112.61	10099.85
166	10015.5	10098.22
167	10139.16	10065.29
168	10387.9	9651.85
169	10324.81	9692.42
17	9338.99	11018.42
170	10301.08	9650.65
171	10333.96	9685.78
172	10374.67	9609.95
173	10298.82	9602.15
174	10305.98	9553.38
175	10292.1	9555.07
176	10294	9658.36
177	10231.32	9545.77
178	10235.78	9565.6
179	10226.7	9568.93
18	9065.98	11141.11
180	10283.32	9555.02
181	10111.13	9642.01
182	10154.11	9679.94
183	10106.25	9731.9
184	10162.64	9686.93
185	10145.55	9689.24
186	10167.25	9592.36
187	10064.83	9697.22
188	10176.59	9590.84
189	10184.8	9639.51
19	9524.89	10948.64
190	10181.87	9705.96
191	10093.67	9828.91
192	10109.72	9827.74
193	10171.94	9860.72
194	10040.33	9889.5
195	10059.19	9904.67
196	10030.76	9959.02
197	9990.04	10007.5
198	9990.55	9992.2
199	9997.7	9998.4
2	10008.99	10870.05
20	9575.5	10680.59
200	10007.98	10007.89
201	10022.84	9952.25
202	10001.57	9933.52
203	9960.43	9980.41
204	9967.55	9972.17
205	9986.74	9988.89
206	10057.56	9789.84
207	10064.04	9782.24
208	9990.94	9849.24
209	9999.35	9856.43
21	9591.59	10578.98
210	9999.43	9856.5
211	10054.67	9774.15
212	10023.26	9746.93
213	10016.18	9755.34
214	9964.06	9908.78
215	9956.28	9901.76
216	9949.19	9909.5
217	9948.4	9895.56
218	9964.97	9892.77
219	9926.01	9936.04
22	9686.07	10479.49
220	9923.88	9791.95
221	9902.37	9857.52
222	9952.64	9829.13
223	9895.96	9865.08
224	9894.13	9850.57
225	9916.52	9869.21
226	9918.13	9929.13
227	9992.75	9863.99
228	9958.89	9821.87
229	9981.06	9923.76
23	9862.32	10458.14
230	9933.23	9942.28
231	10007.91	9863.43
232	10100.3	9821.38
233	10318.6	9698.76
234	10058.1	9705.26
235	10370.6	9599.32
236	10075.14	9610.45
237	10067.46	9604.23
238	10064.48	9598.85
239	10025.26	9656.35
24	9506.3	10984.77
240	10021.43	9661.08
241	10015.82	9667.92