[TITLE]

[JUNCTIONS]
;ID	Elev	Demand	Pattern
1	0	1.4	 	;
10	0	3.6	 	;
11	0	4.5	 	;
12	0	12.6	 	;
13	0	13.9	 	;
14	0	12.1	 	;
15	0	6.7	 	;
16	0	10.7	 	;
17	0	13	 	;
18	0	14.8	 	;
19	0	13.4	 	;
2	0	3.1	 	;
20	0	4.5	 	;
21	0	5	 	;
22	0	13.9	 	;
23	0	15.2	 	;
24	0	13.4	 	;
25	0	10.3	 	;
26	0	12.1	 	;
27	0	13.9	 	;
28	0	12.6	 	;
29	0	4.5	 	;
3	0	3.6	 	;
30	0	4	 	;
31	0	11.2	 	;
32	0	12.1	 	;
33	0	10.7	 	;
34	0	5.8	 	;
35	0	2.7	 	;
36	0	5	 	;
37	0	5.4	 	;
38	0	5	 	;
39	0	1.8	 	;
4	0	3.1	 	;
5	0	1.8	 	;
6	0	5.4	 	;
7	0	9.4	 	;
8	0	10.7	 	;
9	0	9.8	 	;

[RESERVOIRS]
;ID	Head	Pattern
40	40	 	;

[TANKS]
;ID	Elevation	InitLevel	MinLevel	MaxLevel	Diameter	MinVol	VolCurve

[PIPES]
;ID	Node1	Node2	Length	Diameter	Roughness	MinorLoss	Status
1	2	1	80	50	0.0015	0	Open	;
10	15	6	200	50	0.0015	0	Open	;
11	15	14	120	50	0.0015	0	Open	;
12	14	13	100	50	0.0015	0	Open	;
13	13	12	150	75	0.0015	0	Open	;
14	12	11	80	75	0.0015	0	Open	;
15	16	15	180	50	0.0015	0	Open	;
16	16	17	120	200	0.0015	0	Open	;
17	17	18	100	100	0.0015	0	Open	;
18	18	19	150	100	0.0015	0	Open	;
19	19	20	80	50	0.0015	0	Open	;
2	3	2	150	50	0.0015	0	Open	;
20	40	16	220.511	200	0.0015	0	Open	;
21	40	24	120.934	250	0.0015	0	Open	;
22	24	23	100	200	0.0015	0	Open	;
23	23	22	150	150	0.0015	0	Open	;
24	22	21	80	100	0.0015	0	Open	;
25	40	25	200.562	150	0.0015	0	Open	;
26	25	26	120	150	0.0015	0	Open	;
27	26	27	100	50	0.0015	0	Open	;
28	27	28	150	50	0.0015	0	Open	;
29	28	29	80	50	0.0015	0	Open	;
3	4	3	100	50	0.0015	0	Open	;
30	25	34	180	50	0.0015	0	Open	;
31	34	33	120	50	0.0015	0	Open	;
32	33	32	100	150	0.0015	0	Open	;
33	32	31	150	150	0.0015	0	Open	;
34	31	30	80	75	0.0015	0	Open	;
35	34	35	150	50	0.0015	0	Open	;
36	35	36	120	50	0.0015	0	Open	;
37	36	37	100	50	0.0015	0	Open	;
38	37	38	150	50	0.0015	0	Open	;
39	38	39	80	50	0.0015	0	Open	;
4	5	4	120	50	0.0015	0	Open	;
40	30	39	150	50	0.0015	0	Open	;
41	21	29	200	50	0.0015	0	Open	;
42	20	21	220	50	0.0015	0	Open	;
43	11	20	180	50	0.0015	0	Open	;
44	1	10	100	50	0.0015	0	Open	;
45	10	11	200	50	0.0015	0	Open	;
46	29	30	180	50	0.0015	0	Open	;
47	2	9	100	50	0.0015	0	Open	;
48	31	38	150	75	0.0015	0	Open	;
49	9	12	200	75	0.0015	0	Open	;
5	6	5	100	50	0.0015	0	Open	;
50	28	31	180	50	0.0015	0	Open	;
51	12	19	180	75	0.0015	0	Open	;
52	22	28	200	75	0.0015	0	Open	;
53	19	22	220	100	0.0015	0	Open	;
54	3	8	100	50	0.0015	0	Open	;
55	32	37	150	50	0.0015	0	Open	;
56	8	13	200	75	0.0015	0	Open	;
57	27	32	180	75	0.0015	0	Open	;
58	13	18	180	75	0.0015	0	Open	;
59	23	27	200	75	0.0015	0	Open	;
6	6	7	120	75	0.0015	0	Open	;
60	18	23	220	100	0.0015	0	Open	;
61	4	7	100	50	0.0015	0	Open	;
62	33	36	150	75	0.0015	0	Open	;
63	7	14	200	200	0.0015	0	Open	;
64	26	33	180	200	0.0015	0	Open	;
65	14	17	180	200	0.0015	0	Open	;
66	24	26	200	200	0.0015	0	Open	;
67	17	24	220	200	0.0015	0	Open	;
7	7	8	100	200	0.0015	0	Open	;
8	8	9	150	150	0.0015	0	Open	;
9	9	10	80	75	0.0015	0	Open	;

[PUMPS]
;ID	Node1	Node2	Parameters

[VALVES]
;ID	Node1	Node2	Diameter	Type	Setting	MinorLoss

[TAGS]

[DEMANDS]
;Junction	Demand	Pattern	Category

[STATUS]
;ID	Status/Setting

[PATTERNS]
;ID	M1	M2	M3	M4	M5	M6

[CURVES]
;ID	X-Value	Y-Value

[CONTROLS]

[RULES]

[ENERGY]
Global Efficiency	75
Global Price	0
Demand Charge	0

[EMITTERS]
;Junction	Coefficient
1	0	;
10	0	;
11	0	;
12	0	;
13	0	;
14	0	;
15	0	;
16	0	;
17	0	;
18	0	;
19	0	;
2	0	;
20	0	;
21	0	;
22	0	;
23	0	;
24	0	;
25	0	;
26	0	;
27	0	;
28	0	;
29	0	;
3	0	;
30	0	;
31	0	;
32	0	;
33	0	;
34	0	;
35	0	;
36	0	;
37	0	;
38	0	;
39	0	;
4	0	;
5	0	;
6	0	;
7	0	;
8	0	;
9	0	;

[QUALITY]
;Node	InitQual

[SOURCES]
;Node	Type	Quality	Pattern

[REACTIONS]
Order Bulk	1
Order Tank	1
Order Wall	1
Global Bulk	0
Global Wall	0
Limiting Potential	0

[REACTIONS]
;Var	Value

[MIXING]
;Tank	Model

[TIMES]
;Var	Value
Duration	00:15
Pattern Timestep	00:30
Hydraulic Timestep	00:30
Quality Timestep	0:05
Pattern Start	00:00
Report Timestep	00:30
Report Start	00:00
Start ClockTime	00:00
Statistic	None

[REPORT]
;Var	Value
Status	No
Summary	No
Page	0

[OPTIONS]
Units	LPS
HeadLoss	D-W
Specific Gravity	1
Viscosity	1
Trials	1000
Accuracy	0.001
Unbalanced	Continue 10
Pattern	1
Demand Multiplier	1
Emitter Exponent	0.5
Quality	None mg/L
Diffusivity	1
Tolerance	0.01

[COORDINATES]
;Node	X-Coord	Y-Coord
1	0	0
10	100	0
11	300	0
12	300	80
13	300	230
14	300	330
15	300	450
16	480	450
17	480	330
18	480	230
19	480	80
2	0	80
20	480	0
21	700	0
22	700	80
23	700	230
24	700	330
25	900	450
26	900	330
27	900	230
28	900	80
29	900	0
3	0	230
30	1080	0
31	1080	80
32	1080	230
33	1080	330
34	1080	450
35	1230	450
36	1230	330
37	1230	230
38	1230	80
39	1230	0
4	0	330
40	700	450
5	0	450
6	100	450
7	100	330
8	100	230
9	100	80

[VERTICES]
;Link	X-Coord	Y-Coord

[LABELS]
;X-Coord	Y-Coord	Label & Anchor Nodo

[BACKDROP]
;Var	Val1	Val2	Val3	Val4

[END]

