[TITLE]

[JUNCTIONS]
;ID	Elev	Demand	Pattern
1	2150.5	0.35	1	;
100	2146.5	0.1	1	;
102	2135.5	0.05	1	;
103	2170.5	0	 	;
104	2156.5	0.05	1	;
105	2142.5	0	 	;
106	2146.5	0.05	1	;
107	2146.5	0.15	1	;
109	2149.5	0	 	;
11	2163.5	0.1	1	;
111	2147.5	0.05	1	;
112	2139.5	0.05	1	;
116	2144.5	0	 	;
12	2152.5	0.05	1	;
120	2156.5	0.1	1	;
121	2169.5	0	 	;
122	2170.5	0	 	;
123	2159.5	0	 	;
124	2163.5	0	 	;
126	2163.5	0.1	1	;
129	2144.5	0	 	;
13	2152.5	0.2	1	;
130	2166.5	0.4	1	;
131	2172.5	0.05	1	;
132	2170.5	0.05	1	;
133	2170.5	0.05	1	;
134	2170.5	0.05	1	;
135	2170.5	0.05	1	;
136	2170.5	0.05	1	;
137	2168.5	0.15	1	;
138	2165.5	0.1	1	;
139	2165.5	0.4	1	;
14	2148.5	0	 	;
140	2159.5	0.15	1	;
142	2155.5	0.1	1	;
143	2157.5	0.05	1	;
145	2155.5	0	 	;
146	2155.5	0.15	1	;
147	2150.5	0.2	1	;
148	2163.5	0.15	1	;
149	2163.5	0.1	1	;
15	2158.5	0.15	1	;
150	2163.5	0.05	1	;
152	2146.5	0.1	1	;
153	2146.5	0	 	;
155	2146.5	0.05	1	;
156	2138.5	0.05	1	;
159	2147.5	0.1	1	;
16	2155.5	0.05	1	;
160	2147.5	0.1	1	;
161	2151.5	0.15	1	;
162	2147.5	0	 	;
163	2138.5	0.05	1	;
164	2150.5	0.15	1	;
165	2150.5	0.05	1	;
166	2150.5	0.05	1	;
167	2139.5	0.1	1	;
168	2147.5	0	 	;
169	2147.5	0.15	1	;
17	2139.5	0.05	1	;
170	2160.5	0.25	1	;
171	2160.5	0.05	1	;
172	2167.5	0.2	1	;
173	2148.5	0	 	;
174	2147.5	0.1	1	;
175	2137.5	0	 	;
176	2137.5	0.2	1	;
177	2146.5	0.05	1	;
179	2139.5	0.25	1	;
18	2149.5	0.2	1	;
180	2139.5	0.3	1	;
181	2139.5	0.05	1	;
182	2139.5	0.2	1	;
183	2137.5	0.3	1	;
184	2134.5	0.15	1	;
185	2134.5	0.1	1	;
187	2138.5	0.15	1	;
188	2138.5	0.05	1	;
189	2138.5	0.1	1	;
19	2156.5	0.15	1	;
190	2159.5	0.05	1	;
191	2161.5	0.05	1	;
192	2134.5	0.1	1	;
193	2134.5	0.1	1	;
195	2137.5	0	 	;
196	2136.5	0.1	1	;
197	2139.5	0.1	1	;
198	2141.5	0.05	1	;
199	2147.5	0	 	;
2	2130.5	0	 	;
20	2150.5	0.05	1	;
201	2149.5	0.05	1	;
202	2152.5	0.05	1	;
203	2139.5	0	 	;
204	2129.5	0.1	1	;
205	2152.5	0.15	1	;
206	2152.5	0.05	1	;
207	2150.5	0.05	1	;
208	2137.5	0.1	1	;
209	2134.5	0	 	;
21	2126.5	0.05	1	;
211	2136.5	0.1	1	;
212	2142.5	0.1	1	;
213	2142.5	0.15	1	;
214	2142.5	0.15	1	;
215	2146.5	0.05	1	;
216	2147.5	0	 	;
217	2153.5	0.25	1	;
218	2144.5	0.15	1	;
219	2140.5	0.15	1	;
22	2144.5	0.05	1	;
220	2144.5	0.1	1	;
221	2137.5	0.1	1	;
222	2140.5	0.15	1	;
223	2144.5	0	 	;
225	2174.5	0	 	;
226	2180.5	0.1	1	;
227	2168.5	0	 	;
228	2172.5	0.05	1	;
229	2172.5	0.05	1	;
23	2146.5	0.25	1	;
230	2172.5	0	 	;
231	2156.5	0.05	1	;
232	2153.5	0.1	1	;
235	2155.5	0.05	1	;
238	2159.5	0.05	1	;
239	2159.5	0.05	1	;
24	2161.5	0.05	1	;
240	2165.5	0.05	1	;
241	2156.5	0.05	1	;
242	2153.5	0.1	1	;
244	2165.5	0.05	1	;
245	2156.5	0.05	1	;
246	2151.5	0.1	1	;
248	2138.5	0.05	1	;
249	2138.5	0.05	1	;
25	2169.5	0.2	1	;
251	2138.5	0.05	1	;
255	2150.5	0.05	1	;
257	2150.5	0.05	1	;
26	2183.5	0.1	1	;
261	2150.5	0.05	1	;
262	2150.5	0.05	1	;
265	2141.5	0.05	1	;
266	2158.5	0.05	1	;
267	2158.5	0.05	1	;
268	2163.5	0	 	;
269	2163.5	0	 	;
27	2142.5	0	 	;
271	2139.5	0.15	1	;
272	2139.5	0.05	1	;
273	2176.5	0	 	;
274	2167.5	0	 	;
275	2135.5	0.25	1	;
277	2158.5	0.25	1	;
278	2166.5	0.05	1	;
279	2145.5	0.2	1	;
28	2176.5	0.1	1	;
280	2150.5	0.1	1	;
281	2155.5	0	 	;
282	2162.5	0.05	1	;
283	2150.5	0.1	1	;
284	2150.5	0.1	1	;
285	2154.5	0.1	1	;
286	2138.5	0.05	1	;
287	2138.5	0.1	1	;
288	2154.5	0.45	1	;
289	2159.5	0.05	1	;
29	2160.5	0.6	1	;
290	2152.5	0	 	;
291	2146.5	0.05	1	;
292	2151.5	0.05	1	;
293	2148.5	0.05	1	;
294	2151.5	0	 	;
295	2157.5	0	 	;
296	2168.5	0.05	1	;
297	2151.5	0.15	1	;
298	2162.5	0	 	;
299	2150.5	0.2	1	;
3	2151.5	0.2	1	;
300	2154.5	0.15	1	;
302	2148.5	0.05	1	;
303	2148.5	0.15	1	;
304	2176.5	0.05	1	;
305	2146.5	0	 	;
306	2145.5	0.05	1	;
307	2150.5	0.15	1	;
308	2151.5	0.35	1	;
309	2161.5	0	 	;
31	2161.5	0.1	1	;
310	2154.5	0	 	;
311	2147.5	0	 	;
312	2163.5	0.1	1	;
313	2152.5	0.05	1	;
314	2156.5	0.1	1	;
315	2151.5	0.25	1	;
316	2151.5	0.15	1	;
318	2144.5	0.2	1	;
319	2156.5	0.2	1	;
32	2161.5	0.05	1	;
320	2139.5	0.05	1	;
321	2139.5	0.05	1	;
322	2148.5	0.15	1	;
323	2138.5	0.05	1	;
324	2149.5	0.35	1	;
325	2144.5	0.05	1	;
326	2142.5	0.1	1	;
327	2150.5	0.15	1	;
33	2175.5	0.2	1	;
332	2177.5	0.05	1	;
333	2138.5	0.05	1	;
334	2156.5	0.1	1	;
335	2156.5	0.1	1	;
337	2184.5	0.05	1	;
338	2143.5	0.1	1	;
339	2143.5	0.15	1	;
34	2155.5	0.1	1	;
340	2147.5	0.05	1	;
341	2149.5	0	 	;
342	2146.5	0.05	1	;
343	2163.5	0.05	1	;
344	2177.5	0.1	1	;
345	2172.5	0.1	1	;
347	2153.5	0.05	1	;
349	2153.5	0.1	1	;
35	2156.5	0.1	1	;
350	2164.5	0	 	;
351	2164.5	0.15	1	;
353	2165.5	0	 	;
354	2174.5	0.05	1	;
355	2174.5	0	 	;
356	2174.5	0.05	1	;
357	2161.5	0.05	1	;
358	2144.5	0.15	1	;
359	2144.5	0.05	1	;
36	2163.5	0.15	1	;
360	2155.5	0	 	;
361	2155.5	0.15	1	;
362	2153.5	0.1	1	;
363	2153.5	0	 	;
364	2158.5	0	 	;
365	2162.5	0.05	1	;
366	2153.5	0.05	1	;
367	2155.5	0.05	1	;
368	2174.5	0.15	1	;
369	2174.5	0	 	;
37	2149.5	0.05	1	;
373	2165.5	0	 	;
377	2171.5	0.05	1	;
378	2159.5	0.15	1	;
379	2161.5	0.1	1	;
38	2134.5	0.2	1	;
380	2155.5	0.05	1	;
381	2155.5	0	 	;
382	2151.5	0	 	;
383	2151.5	0.2	1	;
384	2154.5	0	 	;
385	2154.5	0.1	1	;
386	2134.5	0.05	1	;
387	2170.5	0.05	1	;
388	2170.5	0	 	;
389	2167.5	0.05	1	;
39	2162.5	0.1	1	;
391	2168.5	0.05	1	;
394	2169.5	0.1	1	;
396	2169.5	0.05	1	;
398	2169.5	0	 	;
399	2138.5	0	 	;
4	2147.5	0	 	;
403	2138.5	0.05	1	;
404	2138.5	0	 	;
408	2139.5	0.05	1	;
409	2169.5	0.05	1	;
41	2145.5	0.1	1	;
412	2138.5	0.05	1	;
413	2142.5	0.1	1	;
414	2142.5	0.1	1	;
415	2149.5	0.1	1	;
417	2133.5	0	 	;
419	2130.5	0	 	;
42	2150.5	0.1	1	;
420	2130.5	0.05	1	;
421	2130.5	0	 	;
422	2137.5	0	 	;
424	2137.5	0	 	;
425	2137.5	0.15	1	;
426	2140.5	0.05	1	;
427	2140.5	0	 	;
428	2140.5	0	 	;
429	2140.5	0.1	1	;
43	2147.5	0.05	1	;
430	2145.5	0.05	1	;
431	2145.5	0.1	1	;
432	2155.5	0.05	1	;
433	2155.5	0.05	1	;
434	2153.5	0.3	1	;
435	2157.5	0.1	1	;
436	2152.5	0.05	1	;
437	2152.5	0.05	1	;
438	2161.5	0.15	1	;
44	2145.5	0.15	1	;
440	2157.5	0.05	1	;
441	2157.5	0.05	1	;
442	2157.5	0.05	1	;
443	2157.5	0.05	1	;
444	2162.5	0	 	;
445	2161.5	0.25	1	;
446	2161.5	0.1	1	;
447	2161.5	0.05	1	;
448	2156.5	0.05	1	;
449	2166.5	0.05	1	;
45	2149.5	0.15	1	;
453	2166.5	0.05	1	;
454	2156.5	0.35	1	;
455	2146.5	0.1	1	;
456	2146.5	0.05	1	;
459	2173.5	0	 	;
46	2124.5	0.1	1	;
460	2170.5	0.05	1	;
462	2173.5	0.1	1	;
464	2173.5	0	 	;
465	2173.5	0	 	;
466	2173.5	0.05	1	;
469	2173.5	0.15	1	;
470	2173.5	0.4	1	;
472	2173.5	0.05	1	;
473	2176.5	0.05	1	;
474	2176.5	0.05	1	;
475	2176.5	0.05	1	;
478	2173.5	0.1	1	;
479	2176.5	0.05	1	;
48	2168.5	0.05	1	;
480	2170.5	0.1	1	;
481	2170.5	0.35	1	;
482	2170.5	0.3	1	;
483	2168.5	0.1	1	;
484	2168.5	0.35	1	;
485	2168.5	0.35	1	;
486	2163.5	0.05	1	;
487	2163.5	0.05	1	;
488	2163.5	0.05	1	;
489	2163.5	0.05	1	;
49	2133.5	0.05	1	;
490	2163.5	0.2	1	;
491	2163.5	0.05	1	;
492	2167.5	0.05	1	;
493	2167.5	0.1	1	;
494	2167.5	0.3	1	;
495	2167.5	0.15	1	;
496	2167.5	0.1	1	;
497	2167.5	0.1	1	;
498	2167.5	0.15	1	;
499	2158.5	0.2	1	;
5	2137.5	0.05	1	;
50	2154.5	0.1	1	;
500	2158.5	0.05	1	;
503	2172.5	0.05	1	;
505	2171.5	0.05	1	;
507	2172.5	0	 	;
508	2184.5	0.1	1	;
509	2184.5	0.1	1	;
51	2146.5	0.05	1	;
510	2184.5	0.1	1	;
512	2193.5	0	 	;
513	2175.5	0.05	1	;
514	2193.5	0	 	;
52	2142.5	0.15	1	;
520	2193.5	0	 	;
521	2184.5	0.05	1	;
525	2184.5	0	 	;
529	2174.5	0.05	1	;
53	2145.5	0.1	1	;
530	2174.5	0.05	1	;
531	2177.5	0.1	1	;
532	2177.5	0	 	;
535	2173.5	0.05	1	;
536	2173.5	0.05	1	;
537	2164.5	0.05	1	;
538	2173.5	0.05	1	;
539	2173.5	0.05	1	;
540	2152.5	0.2	1	;
541	2154.5	0.1	1	;
542	2129.5	0.05	1	;
543	2126.5	0.15	1	;
544	2140.5	0.15	1	;
545	2137.5	0.05	1	;
546	2137.5	0.05	1	;
547	2137.5	0	 	;
548	2137.5	0	 	;
549	2129.5	0	 	;
55	2164.5	0.05	1	;
550	2124.5	0.05	1	;
551	2124.5	0	 	;
553	2134.5	0	 	;
554	2134.5	0.05	1	;
555	2134.5	0.45	1	;
556	2124.5	0.1	1	;
557	2130.5	0.05	1	;
558	2130.5	0	 	;
56	2149.5	0.05	1	;
560	2130.5	0.05	1	;
561	2131.5	0.05	1	;
562	2131.5	0.15	1	;
563	2131.5	0.05	1	;
565	2131.5	0.05	1	;
567	2131.5	0	 	;
57	2149.5	0	 	;
571	2131.5	0.1	1	;
572	2131.5	0.1	1	;
573	2133.5	0.1	1	;
577	2133.5	0.05	1	;
579	2132.5	0.05	1	;
58	2155.5	0.1	1	;
580	2132.5	0.05	1	;
581	2132.5	0	 	;
582	2132.5	0.05	1	;
584	2126.5	0.05	1	;
585	2124.5	0.1	1	;
587	2124.5	0	 	;
588	2124.5	0	 	;
589	2124.5	0.1	1	;
59	2145.5	0.3	1	;
590	2124.5	0.05	1	;
592	2127.5	0.05	1	;
593	2124.5	0.05	1	;
594	2129.5	0.2	1	;
595	2134.5	0.25	1	;
596	2140.5	0.05	1	;
597	2140.5	0.15	1	;
598	2140.5	0	 	;
599	2133.5	0	 	;
600	2133.5	0.1	1	;
602	2133.5	0.1	1	;
604	2135.5	0	 	;
605	2135.5	0	 	;
606	2139.5	0.05	1	;
608	2134.5	0.35	1	;
609	2131.5	0	 	;
61	2155.5	0	 	;
610	2131.5	0	 	;
611	2131.5	0	 	;
612	2133.5	0.1	1	;
613	2127.5	0.15	1	;
614	2140.5	0	 	;
616	2147.5	0.1	1	;
617	2145.5	0.15	1	;
618	2145.5	0.1	1	;
619	2141.5	0.05	1	;
62	2163.5	0.1	1	;
620	2141.5	0	 	;
621	2141.5	0.05	1	;
622	2144.5	0.25	1	;
623	2153.5	0.05	1	;
624	2153.5	0	 	;
626	2153.5	0.1	1	;
628	2153.5	0.05	1	;
63	2155.5	0.05	1	;
631	2157.5	0.05	1	;
634	2156.5	0.2	1	;
635	2156.5	0.1	1	;
636	2163.5	0	 	;
637	2163.5	0.15	1	;
638	2163.5	0.05	1	;
639	2176.5	0.05	1	;
64	2139.5	0.05	1	;
640	2176.5	0	 	;
643	2173.5	0.05	1	;
644	2173.5	0.05	1	;
646	2169.5	0.05	1	;
647	2169.5	0.05	1	;
649	2169.5	0.05	1	;
65	2161.5	0.2	1	;
650	2169.5	0.05	1	;
651	2173.5	0.1	1	;
653	2173.5	0	 	;
656	2179.5	0.1	1	;
657	2179.5	0.05	1	;
658	2179.5	0.05	1	;
660	2179.5	0.05	1	;
662	2179.5	0.15	1	;
665	2178.5	0	 	;
669	2174.5	0.1	1	;
67	2159.5	0.1	1	;
671	2174.5	0.1	1	;
674	2170.5	0.1	1	;
675	2170.5	0.05	1	;
676	2170.5	0.15	1	;
677	2166.5	0.05	1	;
678	2166.5	0.05	1	;
679	2166.5	0.1	1	;
68	2156.5	0.2	1	;
680	2166.5	0.05	1	;
682	2166.5	0.1	1	;
683	2157.5	0.25	1	;
687	2164.5	0.05	1	;
688	2163.5	0.15	1	;
689	2164.5	0.1	1	;
69	2156.5	0.2	1	;
690	2163.5	0.05	1	;
691	2168.5	0.05	1	;
692	2146.5	0.4	1	;
693	2147.5	0.05	1	;
696	2147.5	0	 	;
697	2147.5	0.1	1	;
7	2133.5	0.05	1	;
70	2149.5	0.05	1	;
700	2173.5	0	 	;
704	2173.5	0	 	;
705	2173.5	0.05	1	;
707	2173.5	0.05	1	;
708	2173.5	0.05	1	;
71	2133.5	0.05	1	;
711	2173.5	0	 	;
714	2173.5	0	 	;
715	2167.5	0.1	1	;
716	2167.5	0.05	1	;
717	2167.5	0.05	1	;
718	2167.5	0	 	;
719	2173.5	0.25	1	;
72	2172.5	0.05	1	;
720	2173.5	0.05	1	;
721	2150.5	0	 	;
723	2159.5	0.05	1	;
724	2159.5	0.1	1	;
725	2159.5	0	 	;
726	2159.5	0	 	;
728	2166.5	0.05	1	;
729	2166.5	0	 	;
73	2148.5	0.15	1	;
730	2166.5	0.05	1	;
731	2166.5	0.05	1	;
733	2160.5	0	 	;
734	2160.5	0.1	1	;
735	2149.5	0	 	;
736	2152.5	0.1	1	;
737	2153.5	0	 	;
738	2144.5	0.35	1	;
739	2144.5	0.2	1	;
74	2169.5	0.35	1	;
741	2142.5	0.05	1	;
742	2142.5	0.1	1	;
743	2142.5	0.15	1	;
745	2149.5	0.15	1	;
746	2149.5	0.05	1	;
747	2149.5	0.1	1	;
748	2150.5	0.05	1	;
75	2163.5	0	 	;
750	2150.5	0	 	;
751	2150.5	0.25	1	;
752	2152.5	0.3	1	;
753	2160.5	0.15	1	;
754	2160.5	0.05	1	;
755	2160.5	0.2	1	;
756	2160.5	0.1	1	;
757	2151.5	0.15	1	;
758	2149.5	0.1	1	;
759	2149.5	0.1	1	;
76	2163.5	0.05	1	;
760	2148.5	0.3	1	;
761	2153.5	0.5	1	;
762	2153.5	0.1	1	;
763	2153.5	0.05	1	;
764	2156.5	0.3	1	;
765	2151.5	0.2	1	;
766	2149.5	0.2	1	;
767	2149.5	0.1	1	;
768	2145.5	0.05	1	;
769	2135.5	0	 	;
77	2171.5	0.1	1	;
771	2162.5	0.05	1	;
772	2169.5	0	 	;
776	2135.5	0.05	1	;
779	2129.5	0.05	1	;
781	2135.5	0.05	1	;
782	2135.5	0.05	1	;
784	2139.5	0.05	1	;
785	2148.5	0.15	1	;
786	2147.5	0.2	1	;
787	2147.5	0.2	1	;
788	2144.5	0.25	1	;
79	2140.5	0.1	1	;
791	2151.5	0.15	1	;
792	2151.5	0.05	1	;
793	2151.5	0.1	1	;
794	2151.5	0.05	1	;
795	2156.5	0.05	1	;
796	2156.5	0.05	1	;
798	2159.5	0.05	1	;
799	2159.5	0.6	1	;
8	2161.5	0.05	1	;
80	2159.5	0	 	;
800	2159.5	0.05	1	;
801	2159.5	0.1	1	;
803	2162.5	0.05	1	;
804	2162.5	0.05	1	;
805	2164.5	0.1	1	;
806	2164.5	0.05	1	;
808	2167.5	0.15	1	;
81	2148.5	0.05	1	;
811	2170.5	0.05	1	;
812	2170.5	0.1	1	;
814	2146.5	0.3	1	;
815	2151.5	0.1	1	;
816	2148.5	0.1	1	;
817	2157.5	0.1	1	;
818	2173.5	0	 	;
819	2167.5	0	 	;
82	2164.5	0.2	1	;
820	2167.5	0.05	1	;
821	2167.5	0.05	1	;
823	2175.5	0	 	;
824	2173.5	0.25	1	;
825	2168.5	0.35	1	;
826	2172.5	0.35	1	;
827	2127.5	0.15	1	;
828	2127.5	0.05	1	;
829	2126.5	0	 	;
83	2150.5	0	 	;
830	2126.5	0.05	1	;
831	2126.5	0.05	1	;
832	2129.5	0.05	1	;
833	2129.5	0	 	;
834	2129.5	0.2	1	;
835	2129.5	0	 	;
836	2129.5	0.05	1	;
84	2159.5	0	 	;
840	2141.5	0.05	1	;
841	2127.5	0.15	1	;
842	2127.5	0.05	1	;
843	2133.5	0.15	1	;
844	2162.5	0.25	1	;
85	2150.5	0.3	1	;
850	2126.5	0.1	1	;
852	2128.5	0.1	1	;
854	2125.5	0.05	1	;
855	2125.5	0	 	;
857	2123.5	0.1	1	;
858	2124.5	0.15	1	;
859	2173.5	0.05	1	;
86	2141.5	0	 	;
861	2173.5	0.1	1	;
863	2159.5	0.1	1	;
864	2159.5	0.2	1	;
865	2159.5	0.05	1	;
867	2159.5	0.1	1	;
868	2150.5	0.25	1	;
869	2146.5	0.3	1	;
87	2158.5	0	 	;
870	2135.5	0.05	1	;
871	2136.5	0.1	1	;
872	2139.5	0.05	1	;
873	2145.5	0.05	1	;
874	2138.5	0.05	1	;
875	2141.5	0.05	1	;
876	2141.5	0.05	1	;
877	2169.5	0.3	1	;
88	2158.5	0	 	;
882	2166.5	0.1	1	;
883	2158.5	0.1	1	;
884	2160.5	0	 	;
885	2145.5	0.8	1	;
886	2168.5	0	 	;
887	2168.5	0	 	;
888	2168.5	0	 	;
889	2188.5	0.9	1	;
89	2153.5	0.1	1	;
890	2188.5	0.1	1	;
891	2188.5	0.35	1	;
892	2178.5	0.5	1	;
893	2176.5	0.2	1	;
894	2177.5	0.05	1	;
9	2152.5	0.3	1	;
90	2150.5	0.1	1	;
900	2133.5	0.05	1	;
903	2164.5	0.15	1	;
904	2164.5	0.1	1	;
905	2168.5	0	 	;
906	2168.5	0.05	1	;
907	2160.5	0.05	1	;
908	2161.5	0.05	1	;
909	2161.5	0.05	1	;
91	2159.5	0.2	1	;
910	2151.5	0.1	1	;
912	2137.5	0.05	1	;
913	2137.5	0.05	1	;
914	2137.5	0.1	1	;
915	2135.5	0	 	;
916	2142.5	0.15	1	;
92	2161.5	0.1	1	;
921	2140.5	0.05	1	;
923	2142.5	0.05	1	;
924	2150.5	0.15	1	;
925	2150.5	0.05	1	;
926	2150.5	0.1	1	;
927	2150.5	0.05	1	;
929	2154.5	0.2	1	;
93	2164.5	0.05	1	;
930	2160.5	0.15	1	;
931	2167.5	0.05	1	;
932	2165.5	0.05	1	;
933	2165.5	0.05	1	;
934	2165.5	0.2	1	;
935	2160.5	0.05	1	;
936	2149.5	0.1	1	;
937	2158.5	0.15	1	;
938	2166.5	0.35	1	;
939	2166.5	0.3	1	;
94	2164.5	0.05	1	;
940	2153.5	0.05	1	;
941	2153.5	0.1	1	;
942	2168.5	0.05	1	;
95	2153.5	0.25	1	;
96	2168.5	0.2	1	;
97	2173.5	0.15	1	;
98	2155.5	0.05	1	;
99	2159.5	0.05	1	;

[RESERVOIRS]
;ID	Head	Pattern
943	2262	 	;

[TANKS]
;ID	Elevation	InitLevel	MinLevel	MaxLevel	Diameter	MinVol	VolCurve

[PIPES]
;ID	Node1	Node2	Length	Diameter	Roughness	MinorLoss	Status
1000	32	58	71.73	152.4	0.0015	0	Open	;
1001	34	381	23.69	152.4	0.0015	0	Open	;
1002	295	217	82.6	76.2	0.0015	0	Open	;
1003	386	221	31.69	76.2	0.0015	0	Open	;
1004	925	926	8.33	152.4	0.0015	0	Open	;
1006	347	61	29.4	76.2	0.0015	0	Open	;
1007	342	324	87.72	152.4	0.0015	0	Open	;
1008	324	90	93.74	152.4	0.0015	0	Open	;
1009	343	62	9.18	152.4	0.0015	0	Open	;
1010	95	322	95.07	152.4	0.0015	0	Open	;
1011	173	333	42.29	254	0.0015	0	Open	;
1012	50	84	65.64	152.4	0.0015	0	Open	;
1013	84	67	46.25	152.4	0.0015	0	Open	;
1014	14	299	83.32	76.2	0.0015	0	Open	;
1015	299	70	91.14	609.6	0.0015	0	Open	;
1016	382	20	65.94	76.2	0.0015	0	Open	;
1017	943	889	482.78	203.2	0.0015	0	CV	;
1022	297	50	82.22	76.2	0.0015	0	Open	;
1023	50	319	91.32	152.4	0.0015	0	Open	;
1024	319	298	97.1	76.2	0.0015	0	Open	;
1025	715	716	34.56	76.2	0.0015	0	Open	;
1026	219	212	96.41	152.4	0.0015	0	Open	;
1027	22	215	34	76.2	0.0015	0	Open	;
1028	314	315	66.12	152.4	0.0015	0	Open	;
1029	280	83	91	76.2	0.0015	0	Open	;
1030	319	87	98.03	76.2	0.0015	0	Open	;
1031	531	532	24	76.2	0.0015	0	Open	;
1032	683	89	15.66	152.4	0.0015	0	Open	;
1033	229	335	81.17	76.2	0.0015	0	Open	;
1034	53	430	56.6	76.2	0.0015	0	Open	;
1035	163	27	158.03	76.2	0.0015	0	Open	;
1036	87	88	75.79	76.2	0.0015	0	Open	;
1037	83	166	41.63	152.4	0.0015	0	Open	;
1039	550	551	16.39	152.4	0.0015	0	Open	;
1040	82	93	89.49	152.4	0.0015	0	Open	;
1041	35	93	84.13	152.4	0.0015	0	Open	;
1042	75	76	48.91	152.4	0.0015	0	Open	;
1043	76	96	43.59	76.2	0.0015	0	Open	;
1045	95	82	91.66	152.4	0.0015	0	Open	;
1046	82	77	63.4	76.2	0.0015	0	Open	;
1047	52	326	47.75	152.4	0.0015	0	Open	;
1048	326	23	92.37	76.2	0.0015	0	Open	;
1049	272	784	14.86	76.2	0.0015	0	Open	;
1050	360	361	44.23	76.2	0.0015	0	Open	;
1051	59	455	49.79	152.4	0.0015	0	Open	;
1052	464	465	7.37	355.6	0.0015	0	Open	;
1053	147	61	66.04	152.4	0.0015	0	Open	;
1054	103	104	52.86	76.2	0.0015	0	Open	;
1055	104	300	89.84	101.6	0.0015	0	Open	;
1058	105	52	4.9	152.4	0.0015	0	Open	;
1062	3	106	56.81	152.4	0.0015	0	Open	;
1070	334	120	77.09	152.4	0.0015	0	Open	;
1071	120	145	81.84	152.4	0.0015	0	Open	;
1072	121	122	49.32	152.4	0.0015	0	Open	;
1073	122	123	66.03	76.2	0.0015	0	Open	;
1079	130	131	86.53	152.4	0.0015	0	Open	;
1080	131	132	89.71	152.4	0.0015	0	Open	;
1081	132	133	6.31	76.2	0.0015	0	Open	;
1082	133	134	37.29	76.2	0.0015	0	Open	;
1083	134	135	15.82	152.4	0.0015	0	Open	;
1084	135	136	23	152.4	0.0015	0	Open	;
1085	136	137	51.49	152.4	0.0015	0	Open	;
1086	137	138	71.28	152.4	0.0015	0	Open	;
1087	138	139	58.37	152.4	0.0015	0	Open	;
1088	139	140	81.93	762	0.0015	0	Open	;
1091	142	143	98.79	609.6	0.0015	0	Open	;
1094	361	145	69.11	76.2	0.0015	0	Open	;
1095	145	146	46.55	152.4	0.0015	0	Open	;
1096	146	85	55.67	152.4	0.0015	0	Open	;
1097	148	149	25.89	152.4	0.0015	0	Open	;
1098	149	150	14.73	152.4	0.0015	0	Open	;
1101	152	153	14.01	76.2	0.0015	0	Open	;
1104	155	156	15.13	76.2	0.0015	0	Open	;
1107	111	159	45.78	152.4	0.0015	0	Open	;
1108	159	160	31.87	76.2	0.0015	0	Open	;
1109	73	1	98.05	76.2	0.0015	0	Open	;
1110	1	162	75.09	152.4	0.0015	0	Open	;
1111	27	164	86.52	152.4	0.0015	0	Open	;
1112	164	300	93.61	76.2	0.0015	0	Open	;
1113	165	100	34.23	152.4	0.0015	0	Open	;
1114	165	166	38.55	152.4	0.0015	0	Open	;
1115	64	167	9.39	76.2	0.0015	0	Open	;
1116	167	168	39.28	76.2	0.0015	0	Open	;
1117	168	169	39.73	76.2	0.0015	0	Open	;
1118	169	280	42.02	76.2	0.0015	0	Open	;
1119	280	170	100.95	152.4	0.0015	0	Open	;
1120	170	171	81.94	76.2	0.0015	0	Open	;
1121	171	172	71.88	152.4	0.0015	0	Open	;
1122	166	43	48.8	76.2	0.0015	0	Open	;
1123	43	169	44.77	76.2	0.0015	0	Open	;
1124	169	173	89.05	152.4	0.0015	0	Open	;
1125	333	174	56.9	76.2	0.0015	0	Open	;
1126	174	168	32.91	152.4	0.0015	0	Open	;
1127	168	311	94.32	152.4	0.0015	0	Open	;
1128	175	64	58.39	304.8	0.0015	0	Open	;
1129	175	176	52.42	152.4	0.0015	0	Open	;
1130	176	177	87.72	152.4	0.0015	0	Open	;
1131	38	177	40.53	76.2	0.0015	0	Open	;
1134	179	180	15.54	152.4	0.0015	0	Open	;
1135	180	181	35.82	152.4	0.0015	0	Open	;
1136	181	182	25.63	76.2	0.0015	0	Open	;
1137	182	183	66.34	76.2	0.0015	0	Open	;
1138	183	38	151.85	152.4	0.0015	0	Open	;
1139	38	184	7.3	76.2	0.0015	0	Open	;
1140	184	185	45.19	76.2	0.0015	0	Open	;
1143	187	188	32.87	76.2	0.0015	0	Open	;
1144	188	189	19.71	152.4	0.0015	0	Open	;
1145	189	163	6.4	152.4	0.0015	0	Open	;
1146	190	91	84.18	152.4	0.0015	0	Open	;
1147	91	8	57.49	76.2	0.0015	0	Open	;
1148	92	191	30.37	152.4	0.0015	0	Open	;
1149	191	190	33.81	76.2	0.0015	0	Open	;
1150	192	193	82.52	76.2	0.0015	0	Open	;
1153	195	5	50.87	76.2	0.0015	0	Open	;
1154	197	196	80.58	762	0.0015	0	Open	;
1157	109	201	8.1	152.4	0.0015	0	Open	;
1158	201	202	99.04	152.4	0.0015	0	Open	;
1159	67	289	5.15	152.4	0.0015	0	Open	;
1160	289	87	77.97	76.2	0.0015	0	Open	;
1161	87	62	96.62	76.2	0.0015	0	Open	;
1162	321	203	17.18	76.2	0.0015	0	Open	;
1163	203	197	38.32	76.2	0.0015	0	Open	;
1164	197	204	71.31	152.4	0.0015	0	Open	;
1165	29	205	66.52	76.2	0.0015	0	Open	;
1166	25	122	74.84	152.4	0.0015	0	Open	;
1167	160	162	44.66	152.4	0.0015	0	Open	;
1168	162	206	60.57	76.2	0.0015	0	Open	;
1169	18	147	98.98	152.4	0.0015	0	Open	;
1170	147	207	91.12	406.4	0.0015	0	Open	;
1171	207	349	62.05	152.4	0.0015	0	Open	;
1172	166	311	35.68	152.4	0.0015	0	Open	;
1173	338	208	61.78	76.2	0.0015	0	Open	;
1174	208	209	77.49	152.4	0.0015	0	Open	;
1177	211	212	33.81	152.4	0.0015	0	Open	;
1178	212	213	66.2	76.2	0.0015	0	Open	;
1179	342	51	1.85	76.2	0.0015	0	Open	;
1180	51	147	81.03	76.2	0.0015	0	Open	;
1181	213	214	6.77	457.2	0.0015	0	Open	;
1182	214	342	78.65	76.2	0.0015	0	Open	;
1183	215	216	91.68	152.4	0.0015	0	Open	;
1184	177	215	43.88	152.4	0.0015	0	Open	;
1185	308	217	92.15	203.2	0.0015	0	Open	;
1186	217	80	64.39	152.4	0.0015	0	Open	;
1187	80	190	23.44	76.2	0.0015	0	Open	;
1188	308	283	87.63	152.4	0.0015	0	Open	;
1189	283	215	49.17	76.2	0.0015	0	Open	;
1190	363	207	25.76	152.4	0.0015	0	Open	;
1191	218	219	69.14	76.2	0.0015	0	Open	;
1192	219	209	74.57	152.4	0.0015	0	Open	;
1193	209	193	74.92	152.4	0.0015	0	Open	;
1194	220	313	67.74	76.2	0.0015	0	Open	;
1195	316	290	88.66	76.2	0.0015	0	Open	;
1196	195	221	37.74	76.2	0.0015	0	Open	;
1197	221	208	33.69	76.2	0.0015	0	Open	;
1198	208	222	83.2	152.4	0.0015	0	Open	;
1199	222	223	43.31	152.4	0.0015	0	Open	;
1200	223	220	43.17	76.2	0.0015	0	Open	;
1201	359	218	79.42	76.2	0.0015	0	Open	;
1202	207	294	53.48	152.4	0.0015	0	Open	;
1203	294	359	37.39	152.4	0.0015	0	Open	;
1204	212	320	84.86	76.2	0.0015	0	Open	;
1206	225	356	44.61	76.2	0.0015	0	Open	;
1207	226	227	42.68	152.4	0.0015	0	Open	;
1208	227	228	45.8	152.4	0.0015	0	Open	;
1209	228	229	35.77	304.8	0.0015	0	Open	;
1210	229	230	37.01	152.4	0.0015	0	Open	;
1211	230	345	20.29	152.4	0.0015	0	Open	;
1212	176	216	40.37	76.2	0.0015	0	Open	;
1213	216	311	51.83	76.2	0.0015	0	Open	;
1214	96	231	36.3	76.2	0.0015	0	Open	;
1215	231	232	40.04	152.4	0.0015	0	Open	;
1216	232	85	88.53	76.2	0.0015	0	Open	;
1223	238	239	54.45	76.2	0.0015	0	Open	;
1224	239	240	38.48	152.4	0.0015	0	Open	;
1225	240	241	89.88	152.4	0.0015	0	Open	;
1226	241	242	44.68	76.2	0.0015	0	Open	;
1227	242	232	46.93	76.2	0.0015	0	Open	;
1230	353	244	36.89	76.2	0.0015	0	Open	;
1231	244	238	53.54	76.2	0.0015	0	Open	;
1232	245	19	41.85	76.2	0.0015	0	Open	;
1233	246	295	83.81	152.4	0.0015	0	Open	;
1234	295	91	97.92	762	0.0015	0	Open	;
1235	129	177	34.76	152.4	0.0015	0	Open	;
1249	261	262	7.58	152.4	0.0015	0	Open	;
1253	265	266	28.45	609.6	0.0015	0	Open	;
1254	266	267	22.14	152.4	0.0015	0	Open	;
1255	267	268	13.77	152.4	0.0015	0	Open	;
1256	248	163	11.32	76.2	0.0015	0	Open	;
1257	163	249	13.76	152.4	0.0015	0	Open	;
1258	249	271	82.39	152.4	0.0015	0	Open	;
1259	271	272	13.1	76.2	0.0015	0	Open	;
1260	28	273	36.9	152.4	0.0015	0	Open	;
1263	883	364	30.56	152.4	0.0015	0	Open	;
1264	364	882	36.37	152.4	0.0015	0	Open	;
1265	322	280	89.36	152.4	0.0015	0	Open	;
1266	345	31	80.74	152.4	0.0015	0	Open	;
1267	31	281	56.06	152.4	0.0015	0	Open	;
1268	311	100	43.44	76.2	0.0015	0	Open	;
1269	100	283	52.4	152.4	0.0015	0	Open	;
1270	232	120	68.28	152.4	0.0015	0	Open	;
1271	120	367	43.33	203.2	0.0015	0	Open	;
1272	367	281	46.78	76.2	0.0015	0	Open	;
1273	238	93	99.72	152.4	0.0015	0	Open	;
1276	324	23	83.04	76.2	0.0015	0	Open	;
1277	196	192	75.59	76.2	0.0015	0	Open	;
1278	106	107	34.15	152.4	0.0015	0	Open	;
1279	73	81	22.19	76.2	0.0015	0	Open	;
1280	14	814	57.87	914.4	0.0015	0	Open	;
1281	503	72	8.55	76.2	0.0015	0	Open	;
1283	34	300	90.26	457.2	0.0015	0	Open	;
1284	300	295	94.79	152.4	0.0015	0	Open	;
1285	220	768	71.04	152.4	0.0015	0	Open	;
1286	318	129	30.84	76.2	0.0015	0	Open	;
1287	332	529	52.44	152.4	0.0015	0	Open	;
1288	225	530	16.4	254	0.0015	0	Open	;
1289	61	297	24.08	152.4	0.0015	0	Open	;
1290	599	71	38.31	152.4	0.0015	0	Open	;
1292	226	76	80.92	76.2	0.0015	0	Open	;
1293	325	326	90.77	152.4	0.0015	0	Open	;
1294	19	299	92.78	152.4	0.0015	0	Open	;
1295	735	303	6.8	76.2	0.0015	0	Open	;
1296	41	306	20.26	152.4	0.0015	0	Open	;
1297	285	238	86.75	76.2	0.0015	0	Open	;
1298	309	190	44.59	76.2	0.0015	0	Open	;
1299	82	171	91.35	76.2	0.0015	0	Open	;
1302	819	716	57.36	76.2	0.0015	0	Open	;
1304	12	13	20.08	203.2	0.0015	0	Open	;
1305	13	319	111.45	152.4	0.0015	0	Open	;
1306	23	320	69	76.2	0.0015	0	Open	;
1307	44	45	142.32	152.4	0.0015	0	Open	;
1308	45	322	93.18	152.4	0.0015	0	Open	;
1309	286	287	55.6	76.2	0.0015	0	Open	;
1310	287	323	10.83	76.2	0.0015	0	Open	;
1311	27	325	95.38	76.2	0.0015	0	Open	;
1312	277	88	33.1	76.2	0.0015	0	Open	;
1314	320	321	16.32	76.2	0.0015	0	Open	;
1317	241	245	45.87	152.4	0.0015	0	Open	;
1318	268	269	10.19	152.4	0.0015	0	Open	;
1319	22	284	49.3	152.4	0.0015	0	Open	;
1320	129	22	44.11	76.2	0.0015	0	Open	;
1321	196	211	39.47	101.6	0.0015	0	Open	;
1322	96	334	39.27	76.2	0.0015	0	Open	;
1323	513	509	37.62	76.2	0.0015	0	Open	;
1324	4	340	16.66	152.4	0.0015	0	Open	;
1325	5	338	65.34	76.2	0.0015	0	Open	;
1326	85	14	91.17	76.2	0.0015	0	Open	;
1327	84	99	32.21	152.4	0.0015	0	Open	;
1328	62	298	85.05	152.4	0.0015	0	Open	;
1329	340	341	56.02	508	0.0015	0	Open	;
1330	358	359	10.3	152.4	0.0015	0	Open	;
1331	359	342	89.54	76.2	0.0015	0	Open	;
1332	344	345	29.21	152.4	0.0015	0	Open	;
1333	362	363	48.87	76.2	0.0015	0	Open	;
1335	355	356	39.34	76.2	0.0015	0	Open	;
1337	315	316	87.11	152.4	0.0015	0	Open	;
1338	316	349	42.77	152.4	0.0015	0	Open	;
1339	55	350	30.55	203.2	0.0015	0	Open	;
1340	350	351	11.87	76.2	0.0015	0	Open	;
1343	353	354	49.89	152.4	0.0015	0	Open	;
1344	354	355	6.06	152.4	0.0015	0	Open	;
1345	334	335	43.94	304.8	0.0015	0	Open	;
1346	335	357	36.46	152.4	0.0015	0	Open	;
1347	313	358	69.91	152.4	0.0015	0	Open	;
1348	281	360	21.1	355.6	0.0015	0	Open	;
1349	349	362	15.77	152.4	0.0015	0	Open	;
1350	273	274	55.11	152.4	0.0015	0	Open	;
1351	274	133	10.8	152.4	0.0015	0	Open	;
1352	211	203	80.8	457.2	0.0015	0	Open	;
1353	368	369	11.38	152.4	0.0015	0	Open	;
1362	377	28	84.21	152.4	0.0015	0	Open	;
1363	310	239	88.7	152.4	0.0015	0	Open	;
1364	239	378	50.95	152.4	0.0015	0	Open	;
1365	378	355	48.59	76.2	0.0015	0	Open	;
1366	32	379	30.57	76.2	0.0015	0	Open	;
1367	298	39	0.24	76.2	0.0015	0	Open	;
1368	39	365	32.62	152.4	0.0015	0	Open	;
1369	365	380	66.38	76.2	0.0015	0	Open	;
1370	380	34	31.95	76.2	0.0015	0	Open	;
1371	381	382	59.92	152.4	0.0015	0	Open	;
1372	382	383	22.33	152.4	0.0015	0	Open	;
1373	383	325	86.25	152.4	0.0015	0	Open	;
1374	35	285	99.63	76.2	0.0015	0	Open	;
1375	285	384	44.72	152.4	0.0015	0	Open	;
1376	384	310	8.46	76.2	0.0015	0	Open	;
1377	310	385	37.51	76.2	0.0015	0	Open	;
1378	385	19	92.86	152.4	0.0015	0	Open	;
1379	19	85	88.2	152.4	0.0015	0	Open	;
1380	387	388	24.13	76.2	0.0015	0	Open	;
1383	48	387	47.4	152.4	0.0015	0	Open	;
1384	391	388	48.54	152.4	0.0015	0	Open	;
1395	412	413	19.18	152.4	0.0015	0	Open	;
1398	403	404	5.99	152.4	0.0015	0	Open	;
1404	121	391	28.53	76.2	0.0015	0	Open	;
1405	391	48	24.38	76.2	0.0015	0	Open	;
1406	388	122	25.97	152.4	0.0015	0	Open	;
1407	379	171	57.05	76.2	0.0015	0	Open	;
1408	384	44	92.86	76.2	0.0015	0	Open	;
1409	385	70	93.3	152.4	0.0015	0	Open	;
1412	413	414	14.75	152.4	0.0015	0	Open	;
1413	414	415	12.05	76.2	0.0015	0	Open	;
1414	415	45	34.17	152.4	0.0015	0	Open	;
1415	432	297	71.88	152.4	0.0015	0	Open	;
1420	419	420	19.51	76.2	0.0015	0	Open	;
1421	420	421	17.85	152.4	0.0015	0	Open	;
1422	421	422	41.79	152.4	0.0015	0	Open	;
1425	424	425	35.58	76.2	0.0015	0	Open	;
1426	425	426	31.32	152.4	0.0015	0	Open	;
1427	426	427	31.01	76.2	0.0015	0	Open	;
1428	427	428	27.62	152.4	0.0015	0	Open	;
1429	428	429	7.46	152.4	0.0015	0	Open	;
1430	429	430	69.89	76.2	0.0015	0	Open	;
1431	430	431	43.27	152.4	0.0015	0	Open	;
1432	431	160	55.8	152.4	0.0015	0	Open	;
1433	63	432	23.87	76.2	0.0015	0	Open	;
1434	433	432	18.17	76.2	0.0015	0	Open	;
1435	432	434	63.34	76.2	0.0015	0	Open	;
1436	434	435	95.9	152.4	0.0015	0	Open	;
1437	435	436	26.86	76.2	0.0015	0	Open	;
1438	436	437	1.54	76.2	0.0015	0	Open	;
1439	438	434	81.09	152.4	0.0015	0	Open	;
1440	434	347	69.16	101.6	0.0015	0	Open	;
1442	435	440	6.52	152.4	0.0015	0	Open	;
1443	440	441	17.63	76.2	0.0015	0	Open	;
1444	441	442	13.27	76.2	0.0015	0	Open	;
1445	442	443	15.1	152.4	0.0015	0	Open	;
1447	437	362	99.8	609.6	0.0015	0	Open	;
1448	282	444	3.8	152.4	0.0015	0	Open	;
1449	444	445	40.99	152.4	0.0015	0	Open	;
1450	445	446	30.54	152.4	0.0015	0	Open	;
1451	446	447	3.47	76.2	0.0015	0	Open	;
1452	447	448	64.68	76.2	0.0015	0	Open	;
1453	448	314	21.53	76.2	0.0015	0	Open	;
1458	454	315	100.74	152.4	0.0015	0	Open	;
1459	455	456	6.15	76.2	0.0015	0	Open	;
1461	455	70	69.36	355.6	0.0015	0	Open	;
1462	59	44	65.94	76.2	0.0015	0	Open	;
1468	465	459	5.75	152.4	0.0015	0	Open	;
1469	459	466	11.25	76.2	0.0015	0	Open	;
1473	469	470	20.66	152.4	0.0015	0	Open	;
1476	472	473	15.78	152.4	0.0015	0	Open	;
1477	473	474	19.78	76.2	0.0015	0	Open	;
1478	474	475	18.3	76.2	0.0015	0	Open	;
1482	478	479	24.25	76.2	0.0015	0	Open	;
1483	479	480	17.9	152.4	0.0015	0	Open	;
1484	480	481	8.11	76.2	0.0015	0	Open	;
1485	481	482	5.93	76.2	0.0015	0	Open	;
1486	482	483	5.58	76.2	0.0015	0	Open	;
1487	483	484	25.4	76.2	0.0015	0	Open	;
1488	484	485	37.09	76.2	0.0015	0	Open	;
1489	485	486	37.98	76.2	0.0015	0	Open	;
1490	486	487	11.71	508	0.0015	0	Open	;
1491	487	488	17.44	152.4	0.0015	0	Open	;
1492	488	489	22.69	152.4	0.0015	0	Open	;
1493	489	490	8.26	76.2	0.0015	0	Open	;
1494	490	491	7.56	76.2	0.0015	0	Open	;
1495	491	492	27.15	152.4	0.0015	0	Open	;
1496	492	493	10.16	152.4	0.0015	0	Open	;
1497	493	494	16.94	76.2	0.0015	0	Open	;
1498	494	495	22.32	76.2	0.0015	0	Open	;
1499	495	496	12.6	152.4	0.0015	0	Open	;
1500	496	497	20.44	76.2	0.0015	0	Open	;
1501	497	498	21.92	76.2	0.0015	0	Open	;
1502	498	499	26.82	152.4	0.0015	0	Open	;
1503	499	500	33.93	152.4	0.0015	0	Open	;
1511	507	228	30.01	76.2	0.0015	0	Open	;
1512	507	344	82.57	152.4	0.0015	0	Open	;
1513	508	509	8.84	76.2	0.0015	0	Open	;
1514	509	510	30.63	152.4	0.0015	0	Open	;
1517	512	514	7.29	152.4	0.0015	0	Open	;
1526	529	225	45.01	76.2	0.0015	0	Open	;
1527	530	531	54.06	152.4	0.0015	0	Open	;
1529	337	521	10.07	76.2	0.0015	0	Open	;
1538	532	75	39.79	152.4	0.0015	0	Open	;
1539	75	241	94.07	76.2	0.0015	0	Open	;
1543	535	536	41.74	76.2	0.0015	0	Open	;
1544	536	537	21	76.2	0.0015	0	Open	;